Program Version,EnergyPlus, Version 9.4.0-998c4b761e, YMD=2022.04.20 08:19
! <Version>, Version ID
 Version, 9.4
! <Timesteps per Hour>, #TimeSteps, Minutes per TimeStep {minutes}
 Timesteps per Hour,  4, 15
! <System Convergence Limits>, Minimum System TimeStep {minutes}, Max HVAC Iterations, Minimum Plant Iterations, Maximum Plant Iterations
 System Convergence Limits, 1, 20, 2, 8
! <Simulation Control>, Do Zone Sizing, Do System Sizing, Do Plant Sizing, Do Design Days, Do Weather Simulation, Do HVAC Sizing Simulation
 Simulation Control, Yes, Yes, Yes, Yes, No, Yes
! <Performance Precision Tradeoffs>, Use Coil Direct Simulation, Zone Radiant Exchange Algorithm, Override Mode, Number of Timestep In Hour, Force Euler Method, Minimum Number of Warmup Days, Force Suppress All Begin Environment Resets, Minimum System Timestep, MaxZoneTempDiff, MaxAllowedDelTemp
 Performance Precision Tradeoffs, No, ScriptF, Normal, 4, No, 1, No, 1.0, 0.300, 2.0000E-003
! <Output Reporting Tolerances>, Tolerance for Time Heating Setpoint Not Met, Tolerance for Zone Cooling Setpoint Not Met Time
 Output Reporting Tolerances, 0.200, 0.200, 
! <Site:GroundTemperature:BuildingSurface>,Jan{C},Feb{C},Mar{C},Apr{C},May{C},Jun{C},Jul{C},Aug{C},Sep{C},Oct{C},Nov{C},Dec{C}
 Site:GroundTemperature:BuildingSurface,  18.00,  18.00,  18.00,  18.00,  18.00,  18.00,  18.00,  18.00,  18.00,  18.00,  18.00,  18.00
! <Site:GroundTemperature:FCfactorMethod>,Jan{C},Feb{C},Mar{C},Apr{C},May{C},Jun{C},Jul{C},Aug{C},Sep{C},Oct{C},Nov{C},Dec{C}
 Site:GroundTemperature:FCfactorMethod,  20.90,  15.40,  11.90,  14.80,  12.70,  15.40,  23.30,  26.30,  31.20,  30.40,  29.80,  27.80
! <Site:GroundTemperature:Shallow>,Jan{C},Feb{C},Mar{C},Apr{C},May{C},Jun{C},Jul{C},Aug{C},Sep{C},Oct{C},Nov{C},Dec{C}
 Site:GroundTemperature:Shallow,  13.00,  13.00,  13.00,  13.00,  13.00,  13.00,  13.00,  13.00,  13.00,  13.00,  13.00,  13.00
! <Site:GroundTemperature:Deep>,Jan{C},Feb{C},Mar{C},Apr{C},May{C},Jun{C},Jul{C},Aug{C},Sep{C},Oct{C},Nov{C},Dec{C}
 Site:GroundTemperature:Deep,  16.00,  16.00,  16.00,  16.00,  16.00,  16.00,  16.00,  16.00,  16.00,  16.00,  16.00,  16.00
! <Site:GroundReflectance>,Jan{dimensionless},Feb{dimensionless},Mar{dimensionless},Apr{dimensionless},May{dimensionless},Jun{dimensionless},Jul{dimensionless},Aug{dimensionless},Sep{dimensionless},Oct{dimensionless},Nov{dimensionless},Dec{dimensionless}
 Site:GroundReflectance,  0.20,  0.20,  0.20,  0.20,  0.20,  0.20,  0.20,  0.20,  0.20,  0.20,  0.20,  0.20
! <Site:GroundReflectance:SnowModifier>, Normal, Daylighting {dimensionless}
 Site:GroundReflectance:SnowModifier,   1.000,   1.000
! <Site:GroundReflectance:Snow>,Jan{dimensionless},Feb{dimensionless},Mar{dimensionless},Apr{dimensionless},May{dimensionless},Jun{dimensionless},Jul{dimensionless},Aug{dimensionless},Sep{dimensionless},Oct{dimensionless},Nov{dimensionless},Dec{dimensionless}
 Site:GroundReflectance:Snow,  0.20,  0.20,  0.20,  0.20,  0.20,  0.20,  0.20,  0.20,  0.20,  0.20,  0.20,  0.20
! <Site:GroundReflectance:Snow:Daylighting>,Jan{dimensionless},Feb{dimensionless},Mar{dimensionless},Apr{dimensionless},May{dimensionless},Jun{dimensionless},Jul{dimensionless},Aug{dimensionless},Sep{dimensionless},Oct{dimensionless},Nov{dimensionless},Dec{dimensionless}
 Site:GroundReflectance:Snow:Daylighting,  0.20,  0.20,  0.20,  0.20,  0.20,  0.20,  0.20,  0.20,  0.20,  0.20,  0.20,  0.20
! <Environment:Weather Station>,Wind Sensor Height Above Ground {m},Wind Speed Profile Exponent {},Wind Speed Profile Boundary Layer Thickness {m},Air Temperature Sensor Height Above Ground {m},Wind Speed Modifier Coefficient-Internal,Temperature Modifier Coefficient-Internal
Environment:Weather Station,10.000,0.140,270.000,1.500,1.586,9.750E-003
! <Site:Location>, Location Name, Latitude {N+/S- Deg}, Longitude {E+/W- Deg},  Time Zone Number {GMT+/-}, Elevation {m},  Standard Pressure at Elevation {Pa}, Standard RhoAir at Elevation
Site:Location,Tucson International Ap AZ USA TMY3 WMO#=722740,32.13,-110.95,-7.00,777.00,92332,1.0974
! <Site Water Mains Temperature Information>,Calculation Method{},Water Mains Temperature Schedule Name{},Annual Average Outdoor Air Temperature{C},Maximum Difference In Monthly Average Outdoor Air Temperatures{deltaC},Fixed Default Water Mains Temperature{C}
Site Water Mains Temperature Information,Correlation,NA,20.39,20.10,NA
! <Building Information>, Building Name,North Axis {deg},Terrain,  Loads Convergence Tolerance Value,Temperature Convergence Tolerance Value,  Solar Distribution,Maximum Number of Warmup Days,Minimum Number of Warmup Days
 Building Information,90.1-2010|MediumOffice,0.000,City,4.00000E-002,0.40000,FullExterior,25,1
! <Inside Convection Algorithm>, Algorithm {Simple | TARP | CeilingDiffuser | AdaptiveConvectionAlgorithm}
Inside Convection Algorithm,TARP
! <Outside Convection Algorithm>, Algorithm {SimpleCombined | TARP | MoWitt | DOE-2 | AdaptiveConvectionAlgorithm}
Outside Convection Algorithm,DOE-2
! <Sky Radiance Distribution>, Value {Anisotropic}
Sky Radiance Distribution,Anisotropic
! <Zone Air Solution Algorithm>, Value {ThirdOrderBackwardDifference | AnalyticalSolution | EulerMethod}
 Zone Air Solution Algorithm, ThirdOrderBackwardDifference
! <Zone Air Carbon Dioxide Balance Simulation>, Simulation {Yes/No}, Carbon Dioxide Concentration
 Zone Air Carbon Dioxide Balance Simulation, No,N/A
! <Zone Air Generic Contaminant Balance Simulation>, Simulation {Yes/No}, Generic Contaminant Concentration
 Zone Air Generic Contaminant Balance Simulation, No,N/A
! <Zone Air Mass Flow Balance Simulation>, Enforce Mass Balance, Adjust Zone Mixing, Adjust Zone Infiltration {AddInfiltration | AdjustInfiltration | None}, Infiltration Zones {MixingSourceZonesOnly | AllZones}
 Zone Air Mass Flow Balance Simulation, No,N/A,N/A,N/A
! <HVACSystemRootFindingAlgorithm>, Value {RegulaFalsi | Bisection | BisectionThenRegulaFalsi | RegulaFalsiThenBisection}
 HVACSystemRootFindingAlgorithm, RegulaFalsi
! <Environment:Site Atmospheric Variation>,Wind Speed Profile Exponent {},Wind Speed Profile Boundary Layer Thickness {m},Air Temperature Gradient Coefficient {K/m}
Environment:Site Atmospheric Variation,0.330,460.000,6.500000E-003
! <Surface Geometry>,Starting Corner,Vertex Input Direction,Coordinate System,Daylight Reference Point Coordinate System,Rectangular (Simple) Surface Coordinate System
 Surface Geometry,UpperLeftCorner,Counterclockwise,RelativeCoordinateSystem,RelativeCoordinateSystem,RelativeToZoneOrigin
! <Surface Heat Transfer Algorithm>, Value {CTF - ConductionTransferFunction | EMPD - MoisturePenetrationDepthConductionTransferFunction | CondFD - ConductionFiniteDifference | HAMT - CombinedHeatAndMoistureFiniteElement} - Description,Inside Surface Max Temperature Limit{C}, Surface Convection Coefficient Lower Limit {W/m2-K}, Surface Convection Coefficient Upper Limit {W/m2-K}
Surface Heat Transfer Algorithm, CTF - ConductionTransferFunction,200,0.10,1000.0
! <Shading Summary>, Number of Fixed Detached Shades, Number of Building Detached Shades, Number of Attached Shades
 Shading Summary,0,0,0
! <Zone Summary>, Number of Zones, Number of Zone Surfaces, Number of SubSurfaces
 Zone Summary,15,102,12
! <Zone Information>,Zone Name,North Axis {deg},Origin X-Coordinate {m},Origin Y-Coordinate {m},Origin Z-Coordinate {m},Centroid X-Coordinate {m},Centroid Y-Coordinate {m},Centroid Z-Coordinate {m},Type,Zone Multiplier,Zone List Multiplier,Minimum X {m},Maximum X {m},Minimum Y {m},Maximum Y {m},Minimum Z {m},Maximum Z {m},Ceiling Height {m},Volume {m3},Zone Inside Convection Algorithm {Simple-Detailed-CeilingDiffuser-TrombeWall},Zone Outside Convection Algorithm {Simple-Detailed-Tarp-MoWitt-DOE-2-BLAST}, Floor Area {m2},Exterior Gross Wall Area {m2},Exterior Net Wall Area {m2},Exterior Window Area {m2}, Number of Surfaces, Number of SubSurfaces, Number of Shading SubSurfaces,  Part of Total Building Area
 Zone Information, ZONE CORE SPACE - STORY GROUND,0.0,-37.16,-23.25,0.00,-2.42E-014,1.91E-014,1.98,1,1,1,-37.16,37.16,-23.25,23.25,0.00,3.96,3.96,13696.58,TARP,DOE-2,3456.64,0.00,0.00,0.00,6,0,0,Yes
 Zone Information, ZONE CORE SPACE - STORY MID,0.0,-37.16,-23.25,37.64,-2.41E-014,1.93E-014,39.62,1,18,1,-37.16,37.16,-23.25,23.25,37.64,41.61,3.96,13696.58,TARP,DOE-2,3456.64,0.00,0.00,0.00,6,0,0,Yes
 Zone Information, ZONE CORE SPACE - STORY TOP,0.0,-37.16,-23.25,75.29,-2.41E-014,1.91E-014,77.27,1,1,1,-37.16,37.16,-23.25,23.25,75.29,79.25,3.96,13696.58,TARP,DOE-2,3456.64,0.00,0.00,0.00,6,0,0,Yes
 Zone Information, ZONE EAST PERIMETER SPACE - STORY GROUND,0.0,41.74,27.82,0.00,39.57,-1.99E-014,1.98,1,1,1,37.16,41.74,-27.82,27.82,0.00,3.96,3.96,925.31,TARP,DOE-2,233.52,220.50,66.15,154.35,6,1,0,Yes
 Zone Information, ZONE EAST PERIMETER SPACE - STORY MID,0.0,41.74,27.82,37.64,39.57,-1.89E-014,39.62,1,18,1,37.16,41.74,-27.82,27.82,37.64,41.61,3.96,925.31,TARP,DOE-2,233.52,220.50,66.15,154.35,6,1,0,Yes
 Zone Information, ZONE EAST PERIMETER SPACE - STORY TOP,0.0,41.74,27.82,75.29,39.57,-2.26E-014,77.27,1,1,1,37.16,41.74,-27.82,27.82,75.29,79.25,3.96,925.31,TARP,DOE-2,233.52,220.50,66.15,154.35,6,1,0,Yes
 Zone Information, ZONE NORTH PERIMETER SPACE - STORY GROUND,0.0,-41.74,27.82,0.00,-1.88E-014,25.62,1.98,1,1,1,-41.74,41.74,23.25,27.82,0.00,3.96,3.96,1429.38,TARP,DOE-2,360.73,330.75,99.23,231.53,6,1,0,Yes
 Zone Information, ZONE NORTH PERIMETER SPACE - STORY MID,0.0,-41.74,27.82,37.64,-1.45E-014,25.62,39.62,1,18,1,-41.74,41.74,23.25,27.82,37.64,41.61,3.96,1429.38,TARP,DOE-2,360.73,330.75,99.23,231.53,6,1,0,Yes
 Zone Information, ZONE NORTH PERIMETER SPACE - STORY TOP,0.0,-41.74,27.82,75.29,-1.83E-014,25.62,77.27,1,1,1,-41.74,41.74,23.25,27.82,75.29,79.25,3.96,1429.38,TARP,DOE-2,360.73,330.75,99.23,231.53,6,1,0,Yes
 Zone Information, ZONE SOUTH PERIMETER SPACE - STORY GROUND,0.0,41.74,-27.82,0.00,1.88E-014,-25.62,1.98,1,1,1,-41.74,41.74,-27.82,-23.25,0.00,3.96,3.96,1429.38,TARP,DOE-2,360.73,330.75,99.23,231.53,6,1,0,Yes
 Zone Information, ZONE SOUTH PERIMETER SPACE - STORY MID,0.0,41.74,-27.82,37.64,1.45E-014,-25.62,39.62,1,18,1,-41.74,41.74,-27.82,-23.25,37.64,41.61,3.96,1429.38,TARP,DOE-2,360.73,330.75,99.23,231.53,6,1,0,Yes
 Zone Information, ZONE SOUTH PERIMETER SPACE - STORY TOP,0.0,41.74,-27.82,75.29,1.83E-014,-25.62,77.27,1,1,1,-41.74,41.74,-27.82,-23.25,75.29,79.25,3.96,1429.38,TARP,DOE-2,360.73,330.75,99.23,231.53,6,1,0,Yes
 Zone Information, ZONE WEST PERIMETER SPACE - STORY GROUND,0.0,-41.74,-27.82,0.00,-39.57,1.99E-014,1.98,1,1,1,-41.74,-37.16,-27.82,27.82,0.00,3.96,3.96,925.31,TARP,DOE-2,233.52,220.50,66.15,154.35,6,1,0,Yes
 Zone Information, ZONE WEST PERIMETER SPACE - STORY MID,0.0,-41.74,-27.82,37.64,-39.57,1.89E-014,39.62,1,18,1,-41.74,-37.16,-27.82,27.82,37.64,41.61,3.96,925.31,TARP,DOE-2,233.52,220.50,66.15,154.35,6,1,0,Yes
 Zone Information, ZONE WEST PERIMETER SPACE - STORY TOP,0.0,-41.74,-27.82,75.29,-39.57,2.26E-014,77.27,1,1,1,-41.74,-37.16,-27.82,27.82,75.29,79.25,3.96,925.31,TARP,DOE-2,233.52,220.50,66.15,154.35,6,1,0,Yes
! <Zone Internal Gains Nominal>,Zone Name, Floor Area {m2},# Occupants,Area per Occupant {m2/person},Occupant per Area {person/m2},Interior Lighting {W/m2},Electric Load {W/m2},Gas Load {W/m2},Other Load {W/m2},Hot Water Eq {W/m2},Steam Equipment {W/m2},Sum Loads per Area {W/m2},Outdoor Controlled Baseboard Heat
 Zone Internal Gains Nominal, ZONE CORE SPACE - STORY GROUND,3456.64,186.0,18.581,5.382E-002,9.688,156.173,0.000,0.000,0.000,0.000,165.860,No
 Zone Internal Gains Nominal, ZONE CORE SPACE - STORY MID,3456.64,186.0,18.581,5.382E-002,9.688,8.073,0.000,0.000,0.000,0.000,17.760,No
 Zone Internal Gains Nominal, ZONE CORE SPACE - STORY TOP,3456.64,186.0,18.581,5.382E-002,9.688,8.073,0.000,0.000,0.000,0.000,17.760,No
 Zone Internal Gains Nominal, ZONE EAST PERIMETER SPACE - STORY GROUND,233.52,12.6,18.581,5.382E-002,9.688,8.073,0.000,0.000,0.000,0.000,17.760,No
 Zone Internal Gains Nominal, ZONE EAST PERIMETER SPACE - STORY MID,233.52,12.6,18.581,5.382E-002,9.688,8.073,0.000,0.000,0.000,0.000,17.760,No
 Zone Internal Gains Nominal, ZONE EAST PERIMETER SPACE - STORY TOP,233.52,12.6,18.581,5.382E-002,9.688,8.073,0.000,0.000,0.000,0.000,17.760,No
 Zone Internal Gains Nominal, ZONE NORTH PERIMETER SPACE - STORY GROUND,360.73,19.4,18.581,5.382E-002,9.688,8.073,0.000,0.000,0.000,0.000,17.760,No
 Zone Internal Gains Nominal, ZONE NORTH PERIMETER SPACE - STORY MID,360.73,19.4,18.581,5.382E-002,9.688,8.073,0.000,0.000,0.000,0.000,17.760,No
 Zone Internal Gains Nominal, ZONE NORTH PERIMETER SPACE - STORY TOP,360.73,19.4,18.581,5.382E-002,9.688,8.073,0.000,0.000,0.000,0.000,17.760,No
 Zone Internal Gains Nominal, ZONE SOUTH PERIMETER SPACE - STORY GROUND,360.73,19.4,18.581,5.382E-002,9.688,8.073,0.000,0.000,0.000,0.000,17.760,No
 Zone Internal Gains Nominal, ZONE SOUTH PERIMETER SPACE - STORY MID,360.73,19.4,18.581,5.382E-002,9.688,8.073,0.000,0.000,0.000,0.000,17.760,No
 Zone Internal Gains Nominal, ZONE SOUTH PERIMETER SPACE - STORY TOP,360.73,19.4,18.581,5.382E-002,9.688,8.073,0.000,0.000,0.000,0.000,17.760,No
 Zone Internal Gains Nominal, ZONE WEST PERIMETER SPACE - STORY GROUND,233.52,12.6,18.581,5.382E-002,9.688,8.073,0.000,0.000,0.000,0.000,17.760,No
 Zone Internal Gains Nominal, ZONE WEST PERIMETER SPACE - STORY MID,233.52,12.6,18.581,5.382E-002,9.688,8.073,0.000,0.000,0.000,0.000,17.760,No
 Zone Internal Gains Nominal, ZONE WEST PERIMETER SPACE - STORY TOP,233.52,12.6,18.581,5.382E-002,9.688,8.073,0.000,0.000,0.000,0.000,17.760,No
! <People Internal Gains Nominal>,Name,Schedule Name,Zone Name,Zone Floor Area {m2},# Zone Occupants,Number of People {},People/Floor Area {person/m2},Floor Area per person {m2/person},Fraction Radiant,Fraction Convected,Sensible Fraction Calculation,Activity level,ASHRAE 55 Warnings,Carbon Dioxide Generation Rate,Nominal Minimum Number of People,Nominal Maximum Number of People
 People Internal Gains Nominal, ZONE CORE SPACE - STORY GROUND OFFICE WHOLEBUILDING - MD OFFICE PEOPLE,OFFICEMEDIUM BLDG_OCC_SCH,ZONE CORE SPACE - STORY GROUND,3456.64,186.0,186.0,5.382E-002,18.581,0.300,0.700,AutoCalculate,OFFICEMEDIUM ACTIVITY_SCH,No,3.8200E-008,0,186
 People Internal Gains Nominal, ZONE CORE SPACE - STORY MID OFFICE WHOLEBUILDING - MD OFFICE PEOPLE,OFFICEMEDIUM BLDG_OCC_SCH,ZONE CORE SPACE - STORY MID,3456.64,186.0,186.0,5.382E-002,18.581,0.300,0.700,AutoCalculate,OFFICEMEDIUM ACTIVITY_SCH,No,3.8200E-008,0,186
 People Internal Gains Nominal, ZONE CORE SPACE - STORY TOP OFFICE WHOLEBUILDING - MD OFFICE PEOPLE,OFFICEMEDIUM BLDG_OCC_SCH,ZONE CORE SPACE - STORY TOP,3456.64,186.0,186.0,5.382E-002,18.581,0.300,0.700,AutoCalculate,OFFICEMEDIUM ACTIVITY_SCH,No,3.8200E-008,0,186
 People Internal Gains Nominal, ZONE EAST PERIMETER SPACE - STORY GROUND OFFICE WHOLEBUILDING - MD OFFICE PEOPLE,OFFICEMEDIUM BLDG_OCC_SCH,ZONE EAST PERIMETER SPACE - STORY GROUND,233.52,12.6,12.6,5.382E-002,18.581,0.300,0.700,AutoCalculate,OFFICEMEDIUM ACTIVITY_SCH,No,3.8200E-008,0,13
 People Internal Gains Nominal, ZONE EAST PERIMETER SPACE - STORY MID OFFICE WHOLEBUILDING - MD OFFICE PEOPLE,OFFICEMEDIUM BLDG_OCC_SCH,ZONE EAST PERIMETER SPACE - STORY MID,233.52,12.6,12.6,5.382E-002,18.581,0.300,0.700,AutoCalculate,OFFICEMEDIUM ACTIVITY_SCH,No,3.8200E-008,0,13
 People Internal Gains Nominal, ZONE EAST PERIMETER SPACE - STORY TOP OFFICE WHOLEBUILDING - MD OFFICE PEOPLE,OFFICEMEDIUM BLDG_OCC_SCH,ZONE EAST PERIMETER SPACE - STORY TOP,233.52,12.6,12.6,5.382E-002,18.581,0.300,0.700,AutoCalculate,OFFICEMEDIUM ACTIVITY_SCH,No,3.8200E-008,0,13
 People Internal Gains Nominal, ZONE NORTH PERIMETER SPACE - STORY GROUND OFFICE WHOLEBUILDING - MD OFFICE PEOPLE,OFFICEMEDIUM BLDG_OCC_SCH,ZONE NORTH PERIMETER SPACE - STORY GROUND,360.73,19.4,19.4,5.382E-002,18.581,0.300,0.700,AutoCalculate,OFFICEMEDIUM ACTIVITY_SCH,No,3.8200E-008,0,19
 People Internal Gains Nominal, ZONE NORTH PERIMETER SPACE - STORY MID OFFICE WHOLEBUILDING - MD OFFICE PEOPLE,OFFICEMEDIUM BLDG_OCC_SCH,ZONE NORTH PERIMETER SPACE - STORY MID,360.73,19.4,19.4,5.382E-002,18.581,0.300,0.700,AutoCalculate,OFFICEMEDIUM ACTIVITY_SCH,No,3.8200E-008,0,19
 People Internal Gains Nominal, ZONE NORTH PERIMETER SPACE - STORY TOP OFFICE WHOLEBUILDING - MD OFFICE PEOPLE,OFFICEMEDIUM BLDG_OCC_SCH,ZONE NORTH PERIMETER SPACE - STORY TOP,360.73,19.4,19.4,5.382E-002,18.581,0.300,0.700,AutoCalculate,OFFICEMEDIUM ACTIVITY_SCH,No,3.8200E-008,0,19
 People Internal Gains Nominal, ZONE SOUTH PERIMETER SPACE - STORY GROUND OFFICE WHOLEBUILDING - MD OFFICE PEOPLE,OFFICEMEDIUM BLDG_OCC_SCH,ZONE SOUTH PERIMETER SPACE - STORY GROUND,360.73,19.4,19.4,5.382E-002,18.581,0.300,0.700,AutoCalculate,OFFICEMEDIUM ACTIVITY_SCH,No,3.8200E-008,0,19
 People Internal Gains Nominal, ZONE SOUTH PERIMETER SPACE - STORY MID OFFICE WHOLEBUILDING - MD OFFICE PEOPLE,OFFICEMEDIUM BLDG_OCC_SCH,ZONE SOUTH PERIMETER SPACE - STORY MID,360.73,19.4,19.4,5.382E-002,18.581,0.300,0.700,AutoCalculate,OFFICEMEDIUM ACTIVITY_SCH,No,3.8200E-008,0,19
 People Internal Gains Nominal, ZONE SOUTH PERIMETER SPACE - STORY TOP OFFICE WHOLEBUILDING - MD OFFICE PEOPLE,OFFICEMEDIUM BLDG_OCC_SCH,ZONE SOUTH PERIMETER SPACE - STORY TOP,360.73,19.4,19.4,5.382E-002,18.581,0.300,0.700,AutoCalculate,OFFICEMEDIUM ACTIVITY_SCH,No,3.8200E-008,0,19
 People Internal Gains Nominal, ZONE WEST PERIMETER SPACE - STORY GROUND OFFICE WHOLEBUILDING - MD OFFICE PEOPLE,OFFICEMEDIUM BLDG_OCC_SCH,ZONE WEST PERIMETER SPACE - STORY GROUND,233.52,12.6,12.6,5.382E-002,18.581,0.300,0.700,AutoCalculate,OFFICEMEDIUM ACTIVITY_SCH,No,3.8200E-008,0,13
 People Internal Gains Nominal, ZONE WEST PERIMETER SPACE - STORY MID OFFICE WHOLEBUILDING - MD OFFICE PEOPLE,OFFICEMEDIUM BLDG_OCC_SCH,ZONE WEST PERIMETER SPACE - STORY MID,233.52,12.6,12.6,5.382E-002,18.581,0.300,0.700,AutoCalculate,OFFICEMEDIUM ACTIVITY_SCH,No,3.8200E-008,0,13
 People Internal Gains Nominal, ZONE WEST PERIMETER SPACE - STORY TOP OFFICE WHOLEBUILDING - MD OFFICE PEOPLE,OFFICEMEDIUM BLDG_OCC_SCH,ZONE WEST PERIMETER SPACE - STORY TOP,233.52,12.6,12.6,5.382E-002,18.581,0.300,0.700,AutoCalculate,OFFICEMEDIUM ACTIVITY_SCH,No,3.8200E-008,0,13
! <Lights Internal Gains Nominal>,Name,Schedule Name,Zone Name,Zone Floor Area {m2},# Zone Occupants,Lighting Level {W},Lights/Floor Area {W/m2},Lights per person {W/person},Fraction Return Air,Fraction Radiant,Fraction Short Wave,Fraction Convected,Fraction Replaceable,End-Use Category,Nominal Minimum Lighting Level {W},Nominal Maximum Lighting Level {W}
 Lights Internal Gains Nominal, ZONE CORE SPACE - STORY GROUND OFFICE WHOLEBUILDING - MD OFFICE LIGHTS,OFFICEMEDIUM BLDG_LIGHT_SCH_2010,ZONE CORE SPACE - STORY GROUND,3456.64,186.0,33486.242,9.688,180.000,0.000,0.700,0.200,0.100,1.000,General,0.000,33486.242
 Lights Internal Gains Nominal, ZONE CORE SPACE - STORY MID OFFICE WHOLEBUILDING - MD OFFICE LIGHTS,OFFICEMEDIUM BLDG_LIGHT_SCH_2010,ZONE CORE SPACE - STORY MID,3456.64,186.0,33486.242,9.688,180.000,0.000,0.700,0.200,0.100,1.000,General,0.000,33486.242
 Lights Internal Gains Nominal, ZONE CORE SPACE - STORY TOP OFFICE WHOLEBUILDING - MD OFFICE LIGHTS,OFFICEMEDIUM BLDG_LIGHT_SCH_2010,ZONE CORE SPACE - STORY TOP,3456.64,186.0,33486.242,9.688,180.000,0.000,0.700,0.200,0.100,1.000,General,0.000,33486.242
 Lights Internal Gains Nominal, ZONE EAST PERIMETER SPACE - STORY GROUND OFFICE WHOLEBUILDING - MD OFFICE LIGHTS,OFFICEMEDIUM BLDG_LIGHT_SCH_2010,ZONE EAST PERIMETER SPACE - STORY GROUND,233.52,12.6,2262.252,9.688,180.000,0.000,0.700,0.200,0.100,1.000,General,0.000,2262.252
 Lights Internal Gains Nominal, ZONE EAST PERIMETER SPACE - STORY MID OFFICE WHOLEBUILDING - MD OFFICE LIGHTS,OFFICEMEDIUM BLDG_LIGHT_SCH_2010,ZONE EAST PERIMETER SPACE - STORY MID,233.52,12.6,2262.252,9.688,180.000,0.000,0.700,0.200,0.100,1.000,General,0.000,2262.252
 Lights Internal Gains Nominal, ZONE EAST PERIMETER SPACE - STORY TOP OFFICE WHOLEBUILDING - MD OFFICE LIGHTS,OFFICEMEDIUM BLDG_LIGHT_SCH_2010,ZONE EAST PERIMETER SPACE - STORY TOP,233.52,12.6,2262.252,9.688,180.000,0.000,0.700,0.200,0.100,1.000,General,0.000,2262.252
 Lights Internal Gains Nominal, ZONE NORTH PERIMETER SPACE - STORY GROUND OFFICE WHOLEBUILDING - MD OFFICE LIGHTS,OFFICEMEDIUM BLDG_LIGHT_SCH_2010,ZONE NORTH PERIMETER SPACE - STORY GROUND,360.73,19.4,3494.627,9.688,180.000,0.000,0.700,0.200,0.100,1.000,General,0.000,3494.627
 Lights Internal Gains Nominal, ZONE NORTH PERIMETER SPACE - STORY MID OFFICE WHOLEBUILDING - MD OFFICE LIGHTS,OFFICEMEDIUM BLDG_LIGHT_SCH_2010,ZONE NORTH PERIMETER SPACE - STORY MID,360.73,19.4,3494.627,9.688,180.000,0.000,0.700,0.200,0.100,1.000,General,0.000,3494.627
 Lights Internal Gains Nominal, ZONE NORTH PERIMETER SPACE - STORY TOP OFFICE WHOLEBUILDING - MD OFFICE LIGHTS,OFFICEMEDIUM BLDG_LIGHT_SCH_2010,ZONE NORTH PERIMETER SPACE - STORY TOP,360.73,19.4,3494.627,9.688,180.000,0.000,0.700,0.200,0.100,1.000,General,0.000,3494.627
 Lights Internal Gains Nominal, ZONE SOUTH PERIMETER SPACE - STORY GROUND OFFICE WHOLEBUILDING - MD OFFICE LIGHTS,OFFICEMEDIUM BLDG_LIGHT_SCH_2010,ZONE SOUTH PERIMETER SPACE - STORY GROUND,360.73,19.4,3494.627,9.688,180.000,0.000,0.700,0.200,0.100,1.000,General,0.000,3494.627
 Lights Internal Gains Nominal, ZONE SOUTH PERIMETER SPACE - STORY MID OFFICE WHOLEBUILDING - MD OFFICE LIGHTS,OFFICEMEDIUM BLDG_LIGHT_SCH_2010,ZONE SOUTH PERIMETER SPACE - STORY MID,360.73,19.4,3494.627,9.688,180.000,0.000,0.700,0.200,0.100,1.000,General,0.000,3494.627
 Lights Internal Gains Nominal, ZONE SOUTH PERIMETER SPACE - STORY TOP OFFICE WHOLEBUILDING - MD OFFICE LIGHTS,OFFICEMEDIUM BLDG_LIGHT_SCH_2010,ZONE SOUTH PERIMETER SPACE - STORY TOP,360.73,19.4,3494.627,9.688,180.000,0.000,0.700,0.200,0.100,1.000,General,0.000,3494.627
 Lights Internal Gains Nominal, ZONE WEST PERIMETER SPACE - STORY GROUND OFFICE WHOLEBUILDING - MD OFFICE LIGHTS,OFFICEMEDIUM BLDG_LIGHT_SCH_2010,ZONE WEST PERIMETER SPACE - STORY GROUND,233.52,12.6,2262.252,9.688,180.000,0.000,0.700,0.200,0.100,1.000,General,0.000,2262.252
 Lights Internal Gains Nominal, ZONE WEST PERIMETER SPACE - STORY MID OFFICE WHOLEBUILDING - MD OFFICE LIGHTS,OFFICEMEDIUM BLDG_LIGHT_SCH_2010,ZONE WEST PERIMETER SPACE - STORY MID,233.52,12.6,2262.252,9.688,180.000,0.000,0.700,0.200,0.100,1.000,General,0.000,2262.252
 Lights Internal Gains Nominal, ZONE WEST PERIMETER SPACE - STORY TOP OFFICE WHOLEBUILDING - MD OFFICE LIGHTS,OFFICEMEDIUM BLDG_LIGHT_SCH_2010,ZONE WEST PERIMETER SPACE - STORY TOP,233.52,12.6,2262.252,9.688,180.000,0.000,0.700,0.200,0.100,1.000,General,0.000,2262.252
! <ElectricEquipment Internal Gains Nominal>,Name,Schedule Name,Zone Name,Zone Floor Area {m2},# Zone Occupants,Equipment Level {W},Equipment/Floor Area {W/m2},Equipment per person {W/person},Fraction Latent,Fraction Radiant,Fraction Lost,Fraction Convected,End-Use SubCategory,Nominal Minimum Equipment Level {W},Nominal Maximum Equipment Level {W}
 ElectricEquipment Internal Gains Nominal, 25 ELEVATOR FANS,ELEVATOR SCHEDULE 3,ZONE CORE SPACE - STORY GROUND,3456.64,186.0,1868.130,0.540,10.042,0.000,0.500,0.000,0.500,Elevators,0.000,1868.130
 ElectricEquipment Internal Gains Nominal, 25 ELEVATOR LIFT MOTORS,ELEVATOR SCHEDULE 1,ZONE CORE SPACE - STORY GROUND,3456.64,186.0,509250.000,147.325,2737.393,0.000,0.000,1.000,0.000,Elevators,0.000,509250.000
 ElectricEquipment Internal Gains Nominal, 25 ELEVATOR LIGHTS,ELEVATOR SCHEDULE 2,ZONE CORE SPACE - STORY GROUND,3456.64,186.0,808.714,0.234,4.347,0.000,0.500,0.000,0.500,Elevators,0.000,808.714
 ElectricEquipment Internal Gains Nominal, ZONE CORE SPACE - STORY GROUND OFFICE WHOLEBUILDING - MD OFFICE ELEC EQUIP,OFFICEMEDIUM BLDG_EQUIP_SCH_2010,ZONE CORE SPACE - STORY GROUND,3456.64,186.0,27905.202,8.073,150.000,0.000,0.500,0.000,0.500,General,0.000,27905.202
 ElectricEquipment Internal Gains Nominal, ZONE CORE SPACE - STORY MID OFFICE WHOLEBUILDING - MD OFFICE ELEC EQUIP,OFFICEMEDIUM BLDG_EQUIP_SCH_2010,ZONE CORE SPACE - STORY MID,3456.64,186.0,27905.202,8.073,150.000,0.000,0.500,0.000,0.500,General,0.000,27905.202
 ElectricEquipment Internal Gains Nominal, ZONE CORE SPACE - STORY TOP OFFICE WHOLEBUILDING - MD OFFICE ELEC EQUIP,OFFICEMEDIUM BLDG_EQUIP_SCH_2010,ZONE CORE SPACE - STORY TOP,3456.64,186.0,27905.202,8.073,150.000,0.000,0.500,0.000,0.500,General,0.000,27905.202
 ElectricEquipment Internal Gains Nominal, ZONE EAST PERIMETER SPACE - STORY GROUND OFFICE WHOLEBUILDING - MD OFFICE ELEC EQUIP,OFFICEMEDIUM BLDG_EQUIP_SCH_2010,ZONE EAST PERIMETER SPACE - STORY GROUND,233.52,12.6,1885.210,8.073,150.000,0.000,0.500,0.000,0.500,General,0.000,1885.210
 ElectricEquipment Internal Gains Nominal, ZONE EAST PERIMETER SPACE - STORY MID OFFICE WHOLEBUILDING - MD OFFICE ELEC EQUIP,OFFICEMEDIUM BLDG_EQUIP_SCH_2010,ZONE EAST PERIMETER SPACE - STORY MID,233.52,12.6,1885.210,8.073,150.000,0.000,0.500,0.000,0.500,General,0.000,1885.210
 ElectricEquipment Internal Gains Nominal, ZONE EAST PERIMETER SPACE - STORY TOP OFFICE WHOLEBUILDING - MD OFFICE ELEC EQUIP,OFFICEMEDIUM BLDG_EQUIP_SCH_2010,ZONE EAST PERIMETER SPACE - STORY TOP,233.52,12.6,1885.210,8.073,150.000,0.000,0.500,0.000,0.500,General,0.000,1885.210
 ElectricEquipment Internal Gains Nominal, ZONE NORTH PERIMETER SPACE - STORY GROUND OFFICE WHOLEBUILDING - MD OFFICE ELEC EQUIP,OFFICEMEDIUM BLDG_EQUIP_SCH_2010,ZONE NORTH PERIMETER SPACE - STORY GROUND,360.73,19.4,2912.189,8.073,150.000,0.000,0.500,0.000,0.500,General,0.000,2912.189
 ElectricEquipment Internal Gains Nominal, ZONE NORTH PERIMETER SPACE - STORY MID OFFICE WHOLEBUILDING - MD OFFICE ELEC EQUIP,OFFICEMEDIUM BLDG_EQUIP_SCH_2010,ZONE NORTH PERIMETER SPACE - STORY MID,360.73,19.4,2912.189,8.073,150.000,0.000,0.500,0.000,0.500,General,0.000,2912.189
 ElectricEquipment Internal Gains Nominal, ZONE NORTH PERIMETER SPACE - STORY TOP OFFICE WHOLEBUILDING - MD OFFICE ELEC EQUIP,OFFICEMEDIUM BLDG_EQUIP_SCH_2010,ZONE NORTH PERIMETER SPACE - STORY TOP,360.73,19.4,2912.189,8.073,150.000,0.000,0.500,0.000,0.500,General,0.000,2912.189
 ElectricEquipment Internal Gains Nominal, ZONE SOUTH PERIMETER SPACE - STORY GROUND OFFICE WHOLEBUILDING - MD OFFICE ELEC EQUIP,OFFICEMEDIUM BLDG_EQUIP_SCH_2010,ZONE SOUTH PERIMETER SPACE - STORY GROUND,360.73,19.4,2912.189,8.073,150.000,0.000,0.500,0.000,0.500,General,0.000,2912.189
 ElectricEquipment Internal Gains Nominal, ZONE SOUTH PERIMETER SPACE - STORY MID OFFICE WHOLEBUILDING - MD OFFICE ELEC EQUIP,OFFICEMEDIUM BLDG_EQUIP_SCH_2010,ZONE SOUTH PERIMETER SPACE - STORY MID,360.73,19.4,2912.189,8.073,150.000,0.000,0.500,0.000,0.500,General,0.000,2912.189
 ElectricEquipment Internal Gains Nominal, ZONE SOUTH PERIMETER SPACE - STORY TOP OFFICE WHOLEBUILDING - MD OFFICE ELEC EQUIP,OFFICEMEDIUM BLDG_EQUIP_SCH_2010,ZONE SOUTH PERIMETER SPACE - STORY TOP,360.73,19.4,2912.189,8.073,150.000,0.000,0.500,0.000,0.500,General,0.000,2912.189
 ElectricEquipment Internal Gains Nominal, ZONE WEST PERIMETER SPACE - STORY GROUND OFFICE WHOLEBUILDING - MD OFFICE ELEC EQUIP,OFFICEMEDIUM BLDG_EQUIP_SCH_2010,ZONE WEST PERIMETER SPACE - STORY GROUND,233.52,12.6,1885.210,8.073,150.000,0.000,0.500,0.000,0.500,General,0.000,1885.210
 ElectricEquipment Internal Gains Nominal, ZONE WEST PERIMETER SPACE - STORY MID OFFICE WHOLEBUILDING - MD OFFICE ELEC EQUIP,OFFICEMEDIUM BLDG_EQUIP_SCH_2010,ZONE WEST PERIMETER SPACE - STORY MID,233.52,12.6,1885.210,8.073,150.000,0.000,0.500,0.000,0.500,General,0.000,1885.210
 ElectricEquipment Internal Gains Nominal, ZONE WEST PERIMETER SPACE - STORY TOP OFFICE WHOLEBUILDING - MD OFFICE ELEC EQUIP,OFFICEMEDIUM BLDG_EQUIP_SCH_2010,ZONE WEST PERIMETER SPACE - STORY TOP,233.52,12.6,1885.210,8.073,150.000,0.000,0.500,0.000,0.500,General,0.000,1885.210
! <Shadowing/Sun Position Calculations Annual Simulations>, Shading Calculation Method, Shading Calculation Update Frequency Method, Shading Calculation Update Frequency {days}, Maximum Figures in Shadow Overlap Calculations {}, Polygon Clipping Algorithm, Pixel Counting Resolution, Sky Diffuse Modeling Algorithm, Output External Shading Calculation Results, Disable Self-Shading Within Shading Zone Groups, Disable Self-Shading From Shading Zone Groups to Other Zones
Shadowing/Sun Position Calculations Annual Simulations,PolygonClipping,Periodic,20,15000,SutherlandHodgman,512,SimpleSkyDiffuseModeling,No,No,No
! <Zone/Window Adjacency Daylighting Counts>, Zone Name, Number of Exterior Windows, Number of Exterior Windows in Adjacent Zones
Zone/Window Adjacency Daylighting Counts, ZONE EAST PERIMETER SPACE - STORY GROUND,1,0
Zone/Window Adjacency Daylighting Counts, ZONE EAST PERIMETER SPACE - STORY MID,1,0
Zone/Window Adjacency Daylighting Counts, ZONE EAST PERIMETER SPACE - STORY TOP,1,0
Zone/Window Adjacency Daylighting Counts, ZONE NORTH PERIMETER SPACE - STORY GROUND,1,0
Zone/Window Adjacency Daylighting Counts, ZONE NORTH PERIMETER SPACE - STORY MID,1,0
Zone/Window Adjacency Daylighting Counts, ZONE NORTH PERIMETER SPACE - STORY TOP,1,0
Zone/Window Adjacency Daylighting Counts, ZONE SOUTH PERIMETER SPACE - STORY GROUND,1,0
Zone/Window Adjacency Daylighting Counts, ZONE SOUTH PERIMETER SPACE - STORY MID,1,0
Zone/Window Adjacency Daylighting Counts, ZONE SOUTH PERIMETER SPACE - STORY TOP,1,0
Zone/Window Adjacency Daylighting Counts, ZONE WEST PERIMETER SPACE - STORY GROUND,1,0
Zone/Window Adjacency Daylighting Counts, ZONE WEST PERIMETER SPACE - STORY MID,1,0
Zone/Window Adjacency Daylighting Counts, ZONE WEST PERIMETER SPACE - STORY TOP,1,0
! <Zone/Window Adjacency Daylighting Matrix>, Zone Name, Number of Adjacent Zones with Windows,Adjacent Zone Names - 1st 100 (max)
Zone/Window Adjacency Daylighting Matrix, ZONE EAST PERIMETER SPACE - STORY GROUND,0
Zone/Window Adjacency Daylighting Matrix, ZONE EAST PERIMETER SPACE - STORY MID,0
Zone/Window Adjacency Daylighting Matrix, ZONE EAST PERIMETER SPACE - STORY TOP,0
Zone/Window Adjacency Daylighting Matrix, ZONE NORTH PERIMETER SPACE - STORY GROUND,0
Zone/Window Adjacency Daylighting Matrix, ZONE NORTH PERIMETER SPACE - STORY MID,0
Zone/Window Adjacency Daylighting Matrix, ZONE NORTH PERIMETER SPACE - STORY TOP,0
Zone/Window Adjacency Daylighting Matrix, ZONE SOUTH PERIMETER SPACE - STORY GROUND,0
Zone/Window Adjacency Daylighting Matrix, ZONE SOUTH PERIMETER SPACE - STORY MID,0
Zone/Window Adjacency Daylighting Matrix, ZONE SOUTH PERIMETER SPACE - STORY TOP,0
Zone/Window Adjacency Daylighting Matrix, ZONE WEST PERIMETER SPACE - STORY GROUND,0
Zone/Window Adjacency Daylighting Matrix, ZONE WEST PERIMETER SPACE - STORY MID,0
Zone/Window Adjacency Daylighting Matrix, ZONE WEST PERIMETER SPACE - STORY TOP,0
! <Water Heater Information>,Type,Name,Volume {m3},Maximum Capacity {W},Standard Rated Recovery Efficiency, Standard Rated Energy Factor
! <ZoneInfiltration Airflow Stats Nominal>,Name,Schedule Name,Zone Name, Zone Floor Area {m2}, # Zone Occupants,Design Volume Flow Rate {m3/s},Volume Flow Rate/Floor Area {m3/s-m2},Volume Flow Rate/Exterior Surface Area {m3/s-m2},ACH - Air Changes per Hour,Equation A - Constant Term Coefficient {},Equation B - Temperature Term Coefficient {1/C},Equation C - Velocity Term Coefficient {s/m}, Equation D - Velocity Squared Term Coefficient {s2/m2}
 ZoneInfiltration Airflow Stats Nominal, EAST PERIMETER SPACE - STORY GROUND INFILTRATION,ALWAYS ON DISCRETE,ZONE EAST PERIMETER SPACE - STORY GROUND,233.52,12.6,0.126,5.378E-004,5.696E-004,0.489,0.000,0.000,0.224,0.000
 ZoneInfiltration Airflow Stats Nominal, EAST PERIMETER SPACE - STORY MID INFILTRATION,ALWAYS ON DISCRETE,ZONE EAST PERIMETER SPACE - STORY MID,233.52,12.6,0.126,5.378E-004,5.696E-004,0.489,0.000,0.000,0.224,0.000
 ZoneInfiltration Airflow Stats Nominal, EAST PERIMETER SPACE - STORY TOP INFILTRATION,ALWAYS ON DISCRETE,ZONE EAST PERIMETER SPACE - STORY TOP,233.52,12.6,0.126,5.378E-004,2.766E-004,0.489,0.000,0.000,0.224,0.000
 ZoneInfiltration Airflow Stats Nominal, NORTH PERIMETER SPACE - STORY GROUND INFILTRATION,ALWAYS ON DISCRETE,ZONE NORTH PERIMETER SPACE - STORY GROUND,360.73,19.4,0.188,5.222E-004,5.696E-004,0.474,0.000,0.000,0.224,0.000
 ZoneInfiltration Airflow Stats Nominal, NORTH PERIMETER SPACE - STORY MID INFILTRATION,ALWAYS ON DISCRETE,ZONE NORTH PERIMETER SPACE - STORY MID,360.73,19.4,0.188,5.222E-004,5.696E-004,0.474,0.000,0.000,0.224,0.000
 ZoneInfiltration Airflow Stats Nominal, NORTH PERIMETER SPACE - STORY TOP INFILTRATION,ALWAYS ON DISCRETE,ZONE NORTH PERIMETER SPACE - STORY TOP,360.73,19.4,0.188,5.222E-004,2.724E-004,0.474,0.000,0.000,0.224,0.000
 ZoneInfiltration Airflow Stats Nominal, SOUTH PERIMETER SPACE - STORY GROUND INFILTRATION,ALWAYS ON DISCRETE,ZONE SOUTH PERIMETER SPACE - STORY GROUND,360.73,19.4,0.188,5.222E-004,5.696E-004,0.474,0.000,0.000,0.224,0.000
 ZoneInfiltration Airflow Stats Nominal, SOUTH PERIMETER SPACE - STORY MID INFILTRATION,ALWAYS ON DISCRETE,ZONE SOUTH PERIMETER SPACE - STORY MID,360.73,19.4,0.188,5.222E-004,5.696E-004,0.474,0.000,0.000,0.224,0.000
 ZoneInfiltration Airflow Stats Nominal, SOUTH PERIMETER SPACE - STORY TOP INFILTRATION,ALWAYS ON DISCRETE,ZONE SOUTH PERIMETER SPACE - STORY TOP,360.73,19.4,0.188,5.222E-004,2.724E-004,0.474,0.000,0.000,0.224,0.000
 ZoneInfiltration Airflow Stats Nominal, WEST PERIMETER SPACE - STORY GROUND INFILTRATION,ALWAYS ON DISCRETE,ZONE WEST PERIMETER SPACE - STORY GROUND,233.52,12.6,0.126,5.378E-004,5.696E-004,0.489,0.000,0.000,0.224,0.000
 ZoneInfiltration Airflow Stats Nominal, WEST PERIMETER SPACE - STORY MID INFILTRATION,ALWAYS ON DISCRETE,ZONE WEST PERIMETER SPACE - STORY MID,233.52,12.6,0.126,5.378E-004,5.696E-004,0.489,0.000,0.000,0.224,0.000
 ZoneInfiltration Airflow Stats Nominal, WEST PERIMETER SPACE - STORY TOP INFILTRATION,ALWAYS ON DISCRETE,ZONE WEST PERIMETER SPACE - STORY TOP,233.52,12.6,0.126,5.378E-004,2.766E-004,0.489,0.000,0.000,0.224,0.000
! <AirFlow Model>, Simple
 AirFlow Model, Simple
! <RoomAir Model>, Zone Name, Mixing/Mundt/UCSDDV/UCSDCV/UCSDUFI/UCSDUFE/User Defined
RoomAir Model,ZONE CORE SPACE - STORY GROUND,Mixing/Well-Stirred
RoomAir Model,ZONE CORE SPACE - STORY MID,Mixing/Well-Stirred
RoomAir Model,ZONE CORE SPACE - STORY TOP,Mixing/Well-Stirred
RoomAir Model,ZONE EAST PERIMETER SPACE - STORY GROUND,Mixing/Well-Stirred
RoomAir Model,ZONE EAST PERIMETER SPACE - STORY MID,Mixing/Well-Stirred
RoomAir Model,ZONE EAST PERIMETER SPACE - STORY TOP,Mixing/Well-Stirred
RoomAir Model,ZONE NORTH PERIMETER SPACE - STORY GROUND,Mixing/Well-Stirred
RoomAir Model,ZONE NORTH PERIMETER SPACE - STORY MID,Mixing/Well-Stirred
RoomAir Model,ZONE NORTH PERIMETER SPACE - STORY TOP,Mixing/Well-Stirred
RoomAir Model,ZONE SOUTH PERIMETER SPACE - STORY GROUND,Mixing/Well-Stirred
RoomAir Model,ZONE SOUTH PERIMETER SPACE - STORY MID,Mixing/Well-Stirred
RoomAir Model,ZONE SOUTH PERIMETER SPACE - STORY TOP,Mixing/Well-Stirred
RoomAir Model,ZONE WEST PERIMETER SPACE - STORY GROUND,Mixing/Well-Stirred
RoomAir Model,ZONE WEST PERIMETER SPACE - STORY MID,Mixing/Well-Stirred
RoomAir Model,ZONE WEST PERIMETER SPACE - STORY TOP,Mixing/Well-Stirred
! <AirflowNetwork Model:Control>, No Multizone or Distribution/Multizone with Distribution/Multizone without Distribution/Multizone with Distribution only during Fan Operation
AirflowNetwork Model:Control,NoMultizoneOrDistribution
! <Zone Volume Capacitance Multiplier>, Sensible Heat Capacity Multiplier, Moisture Capacity Multiplier, Carbon Dioxide Capacity Multiplier, Generic Contaminant Capacity Multiplier
Zone Volume Capacitance Multiplier,   1.000 ,   1.000,   1.000,   1.000
! <Load Timesteps in Zone Design Calculation Averaging Window>, Value
 Load Timesteps in Zone Design Calculation Averaging Window,    4
! <Heating Sizing Factor Information>, Sizing Factor ID, Value
 Heating Sizing Factor Information, Global,   1.2500    
 Heating Sizing Factor Information, Zone ZONE CORE SPACE - STORY GROUND,   1.2500    
 Heating Sizing Factor Information, Zone ZONE CORE SPACE - STORY MID,   1.2500    
 Heating Sizing Factor Information, Zone ZONE CORE SPACE - STORY TOP,   1.2500    
 Heating Sizing Factor Information, Zone ZONE EAST PERIMETER SPACE - STORY GROUND,   1.2500    
 Heating Sizing Factor Information, Zone ZONE EAST PERIMETER SPACE - STORY MID,   1.2500    
 Heating Sizing Factor Information, Zone ZONE EAST PERIMETER SPACE - STORY TOP,   1.2500    
 Heating Sizing Factor Information, Zone ZONE NORTH PERIMETER SPACE - STORY GROUND,   1.2500    
 Heating Sizing Factor Information, Zone ZONE NORTH PERIMETER SPACE - STORY MID,   1.2500    
 Heating Sizing Factor Information, Zone ZONE NORTH PERIMETER SPACE - STORY TOP,   1.2500    
 Heating Sizing Factor Information, Zone ZONE SOUTH PERIMETER SPACE - STORY GROUND,   1.2500    
 Heating Sizing Factor Information, Zone ZONE SOUTH PERIMETER SPACE - STORY MID,   1.2500    
 Heating Sizing Factor Information, Zone ZONE SOUTH PERIMETER SPACE - STORY TOP,   1.2500    
 Heating Sizing Factor Information, Zone ZONE WEST PERIMETER SPACE - STORY GROUND,   1.2500    
 Heating Sizing Factor Information, Zone ZONE WEST PERIMETER SPACE - STORY MID,   1.2500    
 Heating Sizing Factor Information, Zone ZONE WEST PERIMETER SPACE - STORY TOP,   1.2500    
! <Cooling Sizing Factor Information>, Sizing Factor ID, Value
 Cooling Sizing Factor Information, Global,   1.1500    
 Cooling Sizing Factor Information, Zone ZONE CORE SPACE - STORY GROUND,   1.1500    
 Cooling Sizing Factor Information, Zone ZONE CORE SPACE - STORY MID,   1.1500    
 Cooling Sizing Factor Information, Zone ZONE CORE SPACE - STORY TOP,   1.1500    
 Cooling Sizing Factor Information, Zone ZONE EAST PERIMETER SPACE - STORY GROUND,   1.1500    
 Cooling Sizing Factor Information, Zone ZONE EAST PERIMETER SPACE - STORY MID,   1.1500    
 Cooling Sizing Factor Information, Zone ZONE EAST PERIMETER SPACE - STORY TOP,   1.1500    
 Cooling Sizing Factor Information, Zone ZONE NORTH PERIMETER SPACE - STORY GROUND,   1.1500    
 Cooling Sizing Factor Information, Zone ZONE NORTH PERIMETER SPACE - STORY MID,   1.1500    
 Cooling Sizing Factor Information, Zone ZONE NORTH PERIMETER SPACE - STORY TOP,   1.1500    
 Cooling Sizing Factor Information, Zone ZONE SOUTH PERIMETER SPACE - STORY GROUND,   1.1500    
 Cooling Sizing Factor Information, Zone ZONE SOUTH PERIMETER SPACE - STORY MID,   1.1500    
 Cooling Sizing Factor Information, Zone ZONE SOUTH PERIMETER SPACE - STORY TOP,   1.1500    
 Cooling Sizing Factor Information, Zone ZONE WEST PERIMETER SPACE - STORY GROUND,   1.1500    
 Cooling Sizing Factor Information, Zone ZONE WEST PERIMETER SPACE - STORY MID,   1.1500    
 Cooling Sizing Factor Information, Zone ZONE WEST PERIMETER SPACE - STORY TOP,   1.1500    
! <Sky Daylight Factors>, MonthAndDay, Zone Name, Window Name, Reference Point, Daylight Factor
 Sky Daylight Factors,Clear Sky,07/21,ZONE EAST PERIMETER SPACE - STORY GROUND,SUB SURFACE 1,EAST PERIMETER SPACE - STORY GROUND DAYLT SENSOR 1,2.4541E-002
 Sky Daylight Factors,Clear Turbid Sky,07/21,ZONE EAST PERIMETER SPACE - STORY GROUND,SUB SURFACE 1,EAST PERIMETER SPACE - STORY GROUND DAYLT SENSOR 1,2.2346E-002
 Sky Daylight Factors,Intermediate Sky,07/21,ZONE EAST PERIMETER SPACE - STORY GROUND,SUB SURFACE 1,EAST PERIMETER SPACE - STORY GROUND DAYLT SENSOR 1,1.5425E-002
 Sky Daylight Factors,Overcast Sky,07/21,ZONE EAST PERIMETER SPACE - STORY GROUND,SUB SURFACE 1,EAST PERIMETER SPACE - STORY GROUND DAYLT SENSOR 1,2.2037E-002
 Sky Daylight Factors,Clear Sky,07/21,ZONE EAST PERIMETER SPACE - STORY MID,SUB SURFACE 7,EAST PERIMETER SPACE - STORY MID DAYLT SENSOR 1,2.4541E-002
 Sky Daylight Factors,Clear Turbid Sky,07/21,ZONE EAST PERIMETER SPACE - STORY MID,SUB SURFACE 7,EAST PERIMETER SPACE - STORY MID DAYLT SENSOR 1,2.2346E-002
 Sky Daylight Factors,Intermediate Sky,07/21,ZONE EAST PERIMETER SPACE - STORY MID,SUB SURFACE 7,EAST PERIMETER SPACE - STORY MID DAYLT SENSOR 1,1.5425E-002
 Sky Daylight Factors,Overcast Sky,07/21,ZONE EAST PERIMETER SPACE - STORY MID,SUB SURFACE 7,EAST PERIMETER SPACE - STORY MID DAYLT SENSOR 1,2.2037E-002
 Sky Daylight Factors,Clear Sky,07/21,ZONE EAST PERIMETER SPACE - STORY TOP,SUB SURFACE 10,EAST PERIMETER SPACE - STORY TOP DAYLT SENSOR 1,2.4541E-002
 Sky Daylight Factors,Clear Turbid Sky,07/21,ZONE EAST PERIMETER SPACE - STORY TOP,SUB SURFACE 10,EAST PERIMETER SPACE - STORY TOP DAYLT SENSOR 1,2.2346E-002
 Sky Daylight Factors,Intermediate Sky,07/21,ZONE EAST PERIMETER SPACE - STORY TOP,SUB SURFACE 10,EAST PERIMETER SPACE - STORY TOP DAYLT SENSOR 1,1.5425E-002
 Sky Daylight Factors,Overcast Sky,07/21,ZONE EAST PERIMETER SPACE - STORY TOP,SUB SURFACE 10,EAST PERIMETER SPACE - STORY TOP DAYLT SENSOR 1,2.2037E-002
 Sky Daylight Factors,Clear Sky,07/21,ZONE NORTH PERIMETER SPACE - STORY GROUND,SUB SURFACE 4,NORTH PERIMETER SPACE - STORY GROUND DAYLT SENSOR 1,1.8827E-002
 Sky Daylight Factors,Clear Turbid Sky,07/21,ZONE NORTH PERIMETER SPACE - STORY GROUND,SUB SURFACE 4,NORTH PERIMETER SPACE - STORY GROUND DAYLT SENSOR 1,1.5978E-002
 Sky Daylight Factors,Intermediate Sky,07/21,ZONE NORTH PERIMETER SPACE - STORY GROUND,SUB SURFACE 4,NORTH PERIMETER SPACE - STORY GROUND DAYLT SENSOR 1,1.0149E-002
 Sky Daylight Factors,Overcast Sky,07/21,ZONE NORTH PERIMETER SPACE - STORY GROUND,SUB SURFACE 4,NORTH PERIMETER SPACE - STORY GROUND DAYLT SENSOR 1,2.1811E-002
 Sky Daylight Factors,Clear Sky,07/21,ZONE NORTH PERIMETER SPACE - STORY MID,SUB SURFACE 5,NORTH PERIMETER SPACE - STORY MID DAYLT SENSOR 1,1.8827E-002
 Sky Daylight Factors,Clear Turbid Sky,07/21,ZONE NORTH PERIMETER SPACE - STORY MID,SUB SURFACE 5,NORTH PERIMETER SPACE - STORY MID DAYLT SENSOR 1,1.5978E-002
 Sky Daylight Factors,Intermediate Sky,07/21,ZONE NORTH PERIMETER SPACE - STORY MID,SUB SURFACE 5,NORTH PERIMETER SPACE - STORY MID DAYLT SENSOR 1,1.0149E-002
 Sky Daylight Factors,Overcast Sky,07/21,ZONE NORTH PERIMETER SPACE - STORY MID,SUB SURFACE 5,NORTH PERIMETER SPACE - STORY MID DAYLT SENSOR 1,2.1811E-002
 Sky Daylight Factors,Clear Sky,07/21,ZONE NORTH PERIMETER SPACE - STORY TOP,SUB SURFACE 12,NORTH PERIMETER SPACE - STORY TOP DAYLT SENSOR 1,1.8827E-002
 Sky Daylight Factors,Clear Turbid Sky,07/21,ZONE NORTH PERIMETER SPACE - STORY TOP,SUB SURFACE 12,NORTH PERIMETER SPACE - STORY TOP DAYLT SENSOR 1,1.5978E-002
 Sky Daylight Factors,Intermediate Sky,07/21,ZONE NORTH PERIMETER SPACE - STORY TOP,SUB SURFACE 12,NORTH PERIMETER SPACE - STORY TOP DAYLT SENSOR 1,1.0149E-002
 Sky Daylight Factors,Overcast Sky,07/21,ZONE NORTH PERIMETER SPACE - STORY TOP,SUB SURFACE 12,NORTH PERIMETER SPACE - STORY TOP DAYLT SENSOR 1,2.1811E-002
 Sky Daylight Factors,Clear Sky,07/21,ZONE SOUTH PERIMETER SPACE - STORY GROUND,SUB SURFACE 2,SOUTH PERIMETER SPACE - STORY GROUND DAYLT SENSOR 1,2.6064E-002
 Sky Daylight Factors,Clear Turbid Sky,07/21,ZONE SOUTH PERIMETER SPACE - STORY GROUND,SUB SURFACE 2,SOUTH PERIMETER SPACE - STORY GROUND DAYLT SENSOR 1,2.4136E-002
 Sky Daylight Factors,Intermediate Sky,07/21,ZONE SOUTH PERIMETER SPACE - STORY GROUND,SUB SURFACE 2,SOUTH PERIMETER SPACE - STORY GROUND DAYLT SENSOR 1,1.6738E-002
 Sky Daylight Factors,Overcast Sky,07/21,ZONE SOUTH PERIMETER SPACE - STORY GROUND,SUB SURFACE 2,SOUTH PERIMETER SPACE - STORY GROUND DAYLT SENSOR 1,2.1811E-002
 Sky Daylight Factors,Clear Sky,07/21,ZONE SOUTH PERIMETER SPACE - STORY MID,SUB SURFACE 6,SOUTH PERIMETER SPACE - STORY MID DAYLT SENSOR 1,2.6064E-002
 Sky Daylight Factors,Clear Turbid Sky,07/21,ZONE SOUTH PERIMETER SPACE - STORY MID,SUB SURFACE 6,SOUTH PERIMETER SPACE - STORY MID DAYLT SENSOR 1,2.4136E-002
 Sky Daylight Factors,Intermediate Sky,07/21,ZONE SOUTH PERIMETER SPACE - STORY MID,SUB SURFACE 6,SOUTH PERIMETER SPACE - STORY MID DAYLT SENSOR 1,1.6738E-002
 Sky Daylight Factors,Overcast Sky,07/21,ZONE SOUTH PERIMETER SPACE - STORY MID,SUB SURFACE 6,SOUTH PERIMETER SPACE - STORY MID DAYLT SENSOR 1,2.1811E-002
 Sky Daylight Factors,Clear Sky,07/21,ZONE SOUTH PERIMETER SPACE - STORY TOP,SUB SURFACE 11,SOUTH PERIMETER SPACE - STORY TOP DAYLT SENSOR 1,2.6064E-002
 Sky Daylight Factors,Clear Turbid Sky,07/21,ZONE SOUTH PERIMETER SPACE - STORY TOP,SUB SURFACE 11,SOUTH PERIMETER SPACE - STORY TOP DAYLT SENSOR 1,2.4136E-002
 Sky Daylight Factors,Intermediate Sky,07/21,ZONE SOUTH PERIMETER SPACE - STORY TOP,SUB SURFACE 11,SOUTH PERIMETER SPACE - STORY TOP DAYLT SENSOR 1,1.6738E-002
 Sky Daylight Factors,Overcast Sky,07/21,ZONE SOUTH PERIMETER SPACE - STORY TOP,SUB SURFACE 11,SOUTH PERIMETER SPACE - STORY TOP DAYLT SENSOR 1,2.1811E-002
 Sky Daylight Factors,Clear Sky,07/21,ZONE WEST PERIMETER SPACE - STORY GROUND,SUB SURFACE 3,WEST PERIMETER SPACE - STORY GROUND DAYLT SENSOR 1,1.9979E-002
 Sky Daylight Factors,Clear Turbid Sky,07/21,ZONE WEST PERIMETER SPACE - STORY GROUND,SUB SURFACE 3,WEST PERIMETER SPACE - STORY GROUND DAYLT SENSOR 1,1.7210E-002
 Sky Daylight Factors,Intermediate Sky,07/21,ZONE WEST PERIMETER SPACE - STORY GROUND,SUB SURFACE 3,WEST PERIMETER SPACE - STORY GROUND DAYLT SENSOR 1,1.1250E-002
 Sky Daylight Factors,Overcast Sky,07/21,ZONE WEST PERIMETER SPACE - STORY GROUND,SUB SURFACE 3,WEST PERIMETER SPACE - STORY GROUND DAYLT SENSOR 1,2.2037E-002
 Sky Daylight Factors,Clear Sky,07/21,ZONE WEST PERIMETER SPACE - STORY MID,SUB SURFACE 8,WEST PERIMETER SPACE - STORY MID DAYLT SENSOR 1,1.9979E-002
 Sky Daylight Factors,Clear Turbid Sky,07/21,ZONE WEST PERIMETER SPACE - STORY MID,SUB SURFACE 8,WEST PERIMETER SPACE - STORY MID DAYLT SENSOR 1,1.7210E-002
 Sky Daylight Factors,Intermediate Sky,07/21,ZONE WEST PERIMETER SPACE - STORY MID,SUB SURFACE 8,WEST PERIMETER SPACE - STORY MID DAYLT SENSOR 1,1.1250E-002
 Sky Daylight Factors,Overcast Sky,07/21,ZONE WEST PERIMETER SPACE - STORY MID,SUB SURFACE 8,WEST PERIMETER SPACE - STORY MID DAYLT SENSOR 1,2.2037E-002
 Sky Daylight Factors,Clear Sky,07/21,ZONE WEST PERIMETER SPACE - STORY TOP,SUB SURFACE 9,WEST PERIMETER SPACE - STORY TOP DAYLT SENSOR 1,1.9979E-002
 Sky Daylight Factors,Clear Turbid Sky,07/21,ZONE WEST PERIMETER SPACE - STORY TOP,SUB SURFACE 9,WEST PERIMETER SPACE - STORY TOP DAYLT SENSOR 1,1.7210E-002
 Sky Daylight Factors,Intermediate Sky,07/21,ZONE WEST PERIMETER SPACE - STORY TOP,SUB SURFACE 9,WEST PERIMETER SPACE - STORY TOP DAYLT SENSOR 1,1.1250E-002
 Sky Daylight Factors,Overcast Sky,07/21,ZONE WEST PERIMETER SPACE - STORY TOP,SUB SURFACE 9,WEST PERIMETER SPACE - STORY TOP DAYLT SENSOR 1,2.2037E-002
! <Zone Sizing Information>, Zone Name, Load Type, Calc Des Load {W}, User Des Load {W}, Calc Des Air Flow Rate {m3/s}, User Des Air Flow Rate {m3/s}, Design Day Name, Date/Time of Peak, Temperature at Peak {C}, Humidity Ratio at Peak {kgWater/kgDryAir}, Floor Area {m2}, # Occupants, Calc Outdoor Air Flow Rate {m3/s}, Calc DOAS Heat Addition Rate {W}
 Zone Sizing Information, ZONE CORE SPACE - STORY GROUND, Cooling, 29567.99600, 34003.19541, 2.35270, 2.70560, TUCSON INTERNATIONAL AP ANN CLG .4% CONDNS DB=>MWB 1, 7/21 08:30:00, 32.19900, 6.10656E-003, 3456.63747, 186.03468, 1.49258, 0.00000
 Zone Sizing Information, ZONE CORE SPACE - STORY GROUND, Heating, 31627.59394, 39534.49243, 1.45210, 1.81513, TUCSON INTERNATIONAL AP ANN HTG 99.6% CONDNS DB 1, 12/21 08:00:00, -0.20000, 4.07618E-003, 3456.63747, 186.03468, 1.49258, 0.00000
 Zone Sizing Information, ZONE CORE SPACE - STORY MID, Cooling, 1708275.21721, 1964516.49979, 134.05996, 154.16895, TUCSON INTERNATIONAL AP ANN CLG .4% CONDNS DB=>MWB 1, 7/21 08:00:00, 30.88800, 6.10456E-003, 3456.63747, 186.03468, 26.86637, 0.00000
 Zone Sizing Information, ZONE CORE SPACE - STORY MID, Heating, 450680.62542, 563350.78178, 20.56061, 26.86637, TUCSON INTERNATIONAL AP ANN HTG 99.6% CONDNS DB 1, 12/21 08:00:00, -0.20000, 4.07618E-003, 3456.63747, 186.03468, 26.86637, 0.00000
 Zone Sizing Information, ZONE CORE SPACE - STORY TOP, Cooling, 100236.87076, 115272.40137, 7.97565, 9.17199, TUCSON INTERNATIONAL AP ANN CLG .4% CONDNS DB=>MWB 1, 7/21 15:00:00, 41.10000, 6.12044E-003, 3456.63747, 186.03468, 1.49258, 0.00000
 Zone Sizing Information, ZONE CORE SPACE - STORY TOP, Heating, 62891.22037, 78614.02546, 2.91463, 3.64329, TUCSON INTERNATIONAL AP ANN HTG 99.6% CONDNS DB 1, 12/21 08:00:00, -0.20000, 4.07618E-003, 3456.63747, 186.03468, 1.49258, 0.00000
 Zone Sizing Information, ZONE EAST PERIMETER SPACE - STORY GROUND, Cooling, 24873.77451, 28604.84068, 1.97900, 2.27585, TUCSON INTERNATIONAL AP ANN CLG .4% CONDNS DB=>MWB 1, 7/21 09:30:00, 34.68300, 6.11040E-003, 233.52227, 12.56806, 0.10083, 0.00000
 Zone Sizing Information, ZONE EAST PERIMETER SPACE - STORY GROUND, Heating, 12391.89257, 15489.86571, 0.37990, 0.47488, TUCSON INTERNATIONAL AP ANN HTG 99.6% CONDNS DB 1, 12/21 08:00:00, -0.20000, 4.07618E-003, 233.52227, 12.56806, 0.10083, 0.00000
 Zone Sizing Information, ZONE EAST PERIMETER SPACE - STORY MID, Cooling, 554719.62282, 637927.56624, 44.13128, 50.75098, TUCSON INTERNATIONAL AP ANN CLG .4% CONDNS DB=>MWB 1, 7/21 09:45:00, 35.26950, 6.11130E-003, 233.52227, 12.56806, 1.81503, 0.00000
 Zone Sizing Information, ZONE EAST PERIMETER SPACE - STORY MID, Heating, 266222.13862, 332777.67328, 12.43102, 15.53877, TUCSON INTERNATIONAL AP ANN HTG 99.6% CONDNS DB 1, 12/21 08:00:00, -0.20000, 4.07618E-003, 233.52227, 12.56806, 1.81503, 0.00000
 Zone Sizing Information, ZONE EAST PERIMETER SPACE - STORY TOP, Cooling, 34325.27980, 39474.07176, 2.73071, 3.14032, TUCSON INTERNATIONAL AP ANN CLG .4% CONDNS DB=>MWB 1, 7/21 09:45:00, 35.26950, 6.11130E-003, 233.52227, 12.56806, 0.10083, 0.00000
 Zone Sizing Information, ZONE EAST PERIMETER SPACE - STORY TOP, Heating, 16743.70398, 20929.62997, 0.78194, 0.97743, TUCSON INTERNATIONAL AP ANN HTG 99.6% CONDNS DB 1, 12/21 08:00:00, -0.20000, 4.07618E-003, 233.52227, 12.56806, 0.10083, 0.00000
 Zone Sizing Information, ZONE NORTH PERIMETER SPACE - STORY GROUND, Cooling, 16307.02320, 18753.07668, 1.29743, 1.49204, TUCSON INTERNATIONAL AP ANN CLG .4% CONDNS DB=>MWB 1, 7/21 15:00:00, 41.10000, 6.12044E-003, 360.73500, 19.41460, 0.15577, 0.00000
 Zone Sizing Information, ZONE NORTH PERIMETER SPACE - STORY GROUND, Heating, 18706.37085, 23382.96356, 0.57346, 0.71682, TUCSON INTERNATIONAL AP ANN HTG 99.6% CONDNS DB 1, 12/21 08:00:00, -0.20000, 4.07618E-003, 360.73500, 19.41460, 0.15577, 0.00000
 Zone Sizing Information, ZONE NORTH PERIMETER SPACE - STORY MID, Cooling, 469206.58243, 539587.56979, 37.32847, 42.92774, TUCSON INTERNATIONAL AP ANN CLG .4% CONDNS DB=>MWB 1, 7/21 15:00:00, 41.10000, 6.12044E-003, 360.73500, 19.41460, 2.80378, 0.00000
 Zone Sizing Information, ZONE NORTH PERIMETER SPACE - STORY MID, Heating, 396554.80567, 495693.50709, 18.51490, 23.14362, TUCSON INTERNATIONAL AP ANN HTG 99.6% CONDNS DB 1, 12/21 08:00:00, -0.20000, 4.07618E-003, 360.73500, 19.41460, 2.80378, 0.00000
 Zone Sizing Information, ZONE NORTH PERIMETER SPACE - STORY TOP, Cooling, 29272.32395, 33663.17255, 2.32875, 2.67806, TUCSON INTERNATIONAL AP ANN CLG .4% CONDNS DB=>MWB 1, 7/21 15:00:00, 41.10000, 6.12044E-003, 360.73500, 19.41460, 0.15577, 0.00000
 Zone Sizing Information, ZONE NORTH PERIMETER SPACE - STORY TOP, Heating, 25005.47490, 31256.84363, 1.16767, 1.45959, TUCSON INTERNATIONAL AP ANN HTG 99.6% CONDNS DB 1, 12/21 08:00:00, -0.20000, 4.07618E-003, 360.73500, 19.41460, 0.15577, 0.00000
 Zone Sizing Information, ZONE SOUTH PERIMETER SPACE - STORY GROUND, Cooling, 21496.11766, 24720.53531, 1.71028, 1.96683, TUCSON INTERNATIONAL AP ANN CLG .4% CONDNS DB=>MWB 1, 7/21 13:30:00, 40.75500, 6.11990E-003, 360.73500, 19.41460, 0.15577, 0.00000
 Zone Sizing Information, ZONE SOUTH PERIMETER SPACE - STORY GROUND, Heating, 18575.63803, 23219.54753, 0.56944, 0.71180, TUCSON INTERNATIONAL AP ANN HTG 99.6% CONDNS DB 1, 12/21 08:00:00, -0.20000, 4.07618E-003, 360.73500, 19.41460, 0.15577, 0.00000
 Zone Sizing Information, ZONE SOUTH PERIMETER SPACE - STORY MID, Cooling, 561119.35073, 645287.25334, 44.64072, 51.33683, TUCSON INTERNATIONAL AP ANN CLG .4% CONDNS DB=>MWB 1, 7/21 13:45:00, 40.92750, 6.12018E-003, 360.73500, 19.41460, 2.80378, 0.00000
 Zone Sizing Information, ZONE SOUTH PERIMETER SPACE - STORY MID, Heating, 398382.61034, 497978.26293, 18.60050, 23.25062, TUCSON INTERNATIONAL AP ANN HTG 99.6% CONDNS DB 1, 12/21 08:00:00, -0.20000, 4.07618E-003, 360.73500, 19.41460, 2.80378, 0.00000
 Zone Sizing Information, ZONE SOUTH PERIMETER SPACE - STORY TOP, Cooling, 35429.12613, 40743.49505, 2.81855, 3.24133, TUCSON INTERNATIONAL AP ANN CLG .4% CONDNS DB=>MWB 1, 7/21 13:45:00, 40.92750, 6.12018E-003, 360.73500, 19.41460, 0.15577, 0.00000
 Zone Sizing Information, ZONE SOUTH PERIMETER SPACE - STORY TOP, Heating, 25194.28908, 31492.86135, 1.17651, 1.47064, TUCSON INTERNATIONAL AP ANN HTG 99.6% CONDNS DB 1, 12/21 08:00:00, -0.20000, 4.07618E-003, 360.73500, 19.41460, 0.15577, 0.00000
 Zone Sizing Information, ZONE WEST PERIMETER SPACE - STORY GROUND, Cooling, 28245.43031, 32482.24485, 2.24726, 2.58435, TUCSON INTERNATIONAL AP ANN CLG .4% CONDNS DB=>MWB 1, 7/21 16:45:00, 39.44400, 6.11783E-003, 233.52227, 12.56806, 0.10083, 0.00000
 Zone Sizing Information, ZONE WEST PERIMETER SPACE - STORY GROUND, Heating, 12478.89574, 15598.61968, 0.38258, 0.47822, TUCSON INTERNATIONAL AP ANN HTG 99.6% CONDNS DB 1, 12/21 08:00:00, -0.20000, 4.07618E-003, 233.52227, 12.56806, 0.10083, 0.00000
 Zone Sizing Information, ZONE WEST PERIMETER SPACE - STORY MID, Cooling, 599139.03899, 689009.89483, 47.66529, 54.81509, TUCSON INTERNATIONAL AP ANN CLG .4% CONDNS DB=>MWB 1, 7/21 16:45:00, 39.44400, 6.11783E-003, 233.52227, 12.56806, 1.81503, 0.00000
 Zone Sizing Information, ZONE WEST PERIMETER SPACE - STORY MID, Heating, 265010.47745, 331263.09682, 12.37427, 15.46784, TUCSON INTERNATIONAL AP ANN HTG 99.6% CONDNS DB 1, 12/21 08:00:00, -0.20000, 4.07618E-003, 233.52227, 12.56806, 1.81503, 0.00000
 Zone Sizing Information, ZONE WEST PERIMETER SPACE - STORY TOP, Cooling, 37323.94596, 42922.53786, 2.96928, 3.41468, TUCSON INTERNATIONAL AP ANN CLG .4% CONDNS DB=>MWB 1, 7/21 16:45:00, 39.44400, 6.11783E-003, 233.52227, 12.56806, 0.10083, 0.00000
 Zone Sizing Information, ZONE WEST PERIMETER SPACE - STORY TOP, Heating, 16618.25352, 20772.81690, 0.77607, 0.97008, TUCSON INTERNATIONAL AP ANN HTG 99.6% CONDNS DB 1, 12/21 08:00:00, -0.20000, 4.07618E-003, 233.52227, 12.56806, 0.10083, 0.00000
! <System Sizing Information>, System Name, Load Type, Peak Load Kind, User Design Capacity, Calc Des Air Flow Rate [m3/s], User Des Air Flow Rate [m3/s], Design Day Name, Date/Time of Peak
 System Sizing Information, 1 ZONE VAV, Cooling, Sensible, 60280.45, 2.70560, 2.70560, TUCSON INTERNATIONAL AP ANN CLG .4% CONDNS DB=>MWB 1, 7/21 00:00:00
 System Sizing Information, 1 ZONE VAV, Heating, Sensible, 21360.76, 1.81513, 1.81513, TUCSON INTERNATIONAL AP ANN HTG 99.6% CONDNS DB 1, 12/21 00:15:00
 System Sizing Information, 5 ZONE VAV, Cooling, Sensible, 4567573.15, 315.05748, 315.05748, TUCSON INTERNATIONAL AP ANN CLG .4% CONDNS DB=>MWB 1, 7/21 00:00:00
 System Sizing Information, 5 ZONE VAV, Heating, Sensible, 516696.34, 104.26723, 104.26723, TUCSON INTERNATIONAL AP ANN HTG 99.6% CONDNS DB 1, 12/21 23:00:00
 System Sizing Information, 5 ZONE VAV 1, Cooling, Sensible, 281541.48, 19.73500, 19.73500, TUCSON INTERNATIONAL AP ANN CLG .4% CONDNS DB=>MWB 1, 7/21 00:00:00
 System Sizing Information, 5 ZONE VAV 1, Heating, Sensible, 26550.28, 8.52103, 8.52103, TUCSON INTERNATIONAL AP ANN HTG 99.6% CONDNS DB 1, 12/21 23:00:00
 System Sizing Information, ZONE EAST PERIMETER SPACE - STORY GROUND PSZ-AC, Cooling, Sensible, 29402.45, 2.27585, 2.27585, TUCSON INTERNATIONAL AP ANN CLG .4% CONDNS DB=>MWB 1, 7/21 05:00:00
 System Sizing Information, ZONE EAST PERIMETER SPACE - STORY GROUND PSZ-AC, Heating, Sensible, 17576.40, 0.47488, 0.47488, TUCSON INTERNATIONAL AP ANN HTG 99.6% CONDNS DB 1, 12/21 08:00:00
 System Sizing Information, ZONE NORTH PERIMETER SPACE - STORY GROUND PSZ-AC, Cooling, Sensible, 21400.54, 1.49204, 1.49204, TUCSON INTERNATIONAL AP ANN CLG .4% CONDNS DB=>MWB 1, 7/21 05:00:00
 System Sizing Information, ZONE NORTH PERIMETER SPACE - STORY GROUND PSZ-AC, Heating, Sensible, 26614.09, 0.71682, 0.71682, TUCSON INTERNATIONAL AP ANN HTG 99.6% CONDNS DB 1, 12/21 08:00:00
 System Sizing Information, ZONE SOUTH PERIMETER SPACE - STORY GROUND PSZ-AC, Cooling, Sensible, 27216.46, 1.96683, 1.96683, TUCSON INTERNATIONAL AP ANN CLG .4% CONDNS DB=>MWB 1, 7/21 05:00:00
 System Sizing Information, ZONE SOUTH PERIMETER SPACE - STORY GROUND PSZ-AC, Heating, Sensible, 26453.02, 0.71180, 0.71180, TUCSON INTERNATIONAL AP ANN HTG 99.6% CONDNS DB 1, 12/21 08:00:00
 System Sizing Information, ZONE WEST PERIMETER SPACE - STORY GROUND PSZ-AC, Cooling, Sensible, 33709.07, 2.58435, 2.58435, TUCSON INTERNATIONAL AP ANN CLG .4% CONDNS DB=>MWB 1, 7/21 05:00:00
 System Sizing Information, ZONE WEST PERIMETER SPACE - STORY GROUND PSZ-AC, Heating, Sensible, 17683.59, 0.47822, 0.47822, TUCSON INTERNATIONAL AP ANN HTG 99.6% CONDNS DB 1, 12/21 08:00:00
! <Component Sizing Information>, Component Type, Component Name, Input Field Description, Value
 Component Sizing Information, AirTerminal:SingleDuct:VAV:Reheat, ZONE CORE SPACE - STORY GROUND VAV TERMINAL, Design Size Maximum Air Flow Rate [m3/s], 2.70560
 Component Sizing Information, AirTerminal:SingleDuct:VAV:Reheat, ZONE CORE SPACE - STORY GROUND VAV TERMINAL, Design Size Constant Minimum Air Flow Fraction, 0.97352
 Component Sizing Information, AirTerminal:SingleDuct:VAV:Reheat, ZONE CORE SPACE - STORY GROUND VAV TERMINAL, User-Specified Constant Minimum Air Flow Fraction, 0.20000
 Component Sizing Information, AirTerminal:SingleDuct:VAV:Reheat, ZONE CORE SPACE - STORY GROUND VAV TERMINAL, Design Size Minimum Air Flow Rate [m3/s], 0.54112
 Component Sizing Information, AirTerminal:SingleDuct:VAV:Reheat, ZONE CORE SPACE - STORY GROUND VAV TERMINAL, Design Size Maximum Flow Fraction during Reheat [], 1.00000
 Component Sizing Information, AirTerminal:SingleDuct:VAV:Reheat, ZONE CORE SPACE - STORY GROUND VAV TERMINAL, User-Specified Maximum Flow Fraction during Reheat [], 0.50000
 Component Sizing Information, AirTerminal:SingleDuct:VAV:Reheat, ZONE CORE SPACE - STORY GROUND VAV TERMINAL, Design Size Maximum Flow per Zone Floor Area during Reheat [m3/s-m2], 3.91363E-004
 Component Sizing Information, AirTerminal:SingleDuct:VAV:Reheat, ZONE CORE SPACE - STORY GROUND VAV TERMINAL, Design Size Maximum Reheat Water Flow Rate [m3/s], 1.23004E-003
 Component Sizing Information, AirTerminal:SingleDuct:VAV:Reheat, ZONE CORE SPACE - STORY GROUND VAV TERMINAL, Design Size Reheat Coil Sizing Air Volume Flow Rate [m3/s], 1.81513
 Component Sizing Information, AirTerminal:SingleDuct:VAV:Reheat, ZONE CORE SPACE - STORY GROUND VAV TERMINAL, Design Size Reheat Coil Sizing Inlet Air Temperature [C], 12.77778
 Component Sizing Information, AirTerminal:SingleDuct:VAV:Reheat, ZONE CORE SPACE - STORY GROUND VAV TERMINAL, Design Size Reheat Coil Sizing Inlet Air Humidity Ratio [kgWater/kgDryAir], 8.00000E-003
 Component Sizing Information, Coil:Heating:Water, ZONE CORE SPACE - STORY GROUND REHEAT COIL, Design Size Rated Capacity [W], 56235.73999
 Component Sizing Information, Coil:Heating:Water, ZONE CORE SPACE - STORY GROUND REHEAT COIL, Design Size Maximum Water Flow Rate [m3/s], 1.23004E-003
 Component Sizing Information, Coil:Heating:Water, ZONE CORE SPACE - STORY GROUND REHEAT COIL, Design Size U-Factor Times Area Value [W/K], 1173.71092
! <Water Heating Coil Capacity Information>,Component Type,Name,Nominal Total Capacity {W}
Water Heating Coil Capacity Information,Coil:Heating:Water,ZONE CORE SPACE - STORY GROUND REHEAT COIL,53179.40
 Component Sizing Information, AirTerminal:SingleDuct:VAV:Reheat, ZONE CORE SPACE - STORY MID VAV TERMINAL, Design Size Maximum Air Flow Rate [m3/s], 154.16895
 Component Sizing Information, AirTerminal:SingleDuct:VAV:Reheat, ZONE CORE SPACE - STORY MID VAV TERMINAL, Design Size Constant Minimum Air Flow Fraction, 0.30753
 Component Sizing Information, AirTerminal:SingleDuct:VAV:Reheat, ZONE CORE SPACE - STORY MID VAV TERMINAL, User-Specified Constant Minimum Air Flow Fraction, 0.20000
 Component Sizing Information, AirTerminal:SingleDuct:VAV:Reheat, ZONE CORE SPACE - STORY MID VAV TERMINAL, Design Size Minimum Air Flow Rate [m3/s], 30.83379
 Component Sizing Information, AirTerminal:SingleDuct:VAV:Reheat, ZONE CORE SPACE - STORY MID VAV TERMINAL, Design Size Maximum Flow Fraction during Reheat [], 0.82007
 Component Sizing Information, AirTerminal:SingleDuct:VAV:Reheat, ZONE CORE SPACE - STORY MID VAV TERMINAL, User-Specified Maximum Flow Fraction during Reheat [], 0.50000
 Component Sizing Information, AirTerminal:SingleDuct:VAV:Reheat, ZONE CORE SPACE - STORY MID VAV TERMINAL, Design Size Maximum Flow per Zone Floor Area during Reheat [m3/s-m2], 1.23891E-003
 Component Sizing Information, AirTerminal:SingleDuct:VAV:Reheat, ZONE CORE SPACE - STORY MID VAV TERMINAL, Design Size Maximum Reheat Water Flow Rate [m3/s], 1.85275E-002
 Component Sizing Information, AirTerminal:SingleDuct:VAV:Reheat, ZONE CORE SPACE - STORY MID VAV TERMINAL, Design Size Reheat Coil Sizing Air Volume Flow Rate [m3/s], 30.83379
 Component Sizing Information, AirTerminal:SingleDuct:VAV:Reheat, ZONE CORE SPACE - STORY MID VAV TERMINAL, Design Size Reheat Coil Sizing Inlet Air Temperature [C], 12.77778
 Component Sizing Information, AirTerminal:SingleDuct:VAV:Reheat, ZONE CORE SPACE - STORY MID VAV TERMINAL, Design Size Reheat Coil Sizing Inlet Air Humidity Ratio [kgWater/kgDryAir], 8.00000E-003
 Component Sizing Information, Coil:Heating:Water, ZONE CORE SPACE - STORY MID REHEAT COIL, Design Size Rated Capacity [W], 847055.75049
 Component Sizing Information, Coil:Heating:Water, ZONE CORE SPACE - STORY MID REHEAT COIL, Design Size Maximum Water Flow Rate [m3/s], 1.85275E-002
 Component Sizing Information, Coil:Heating:Water, ZONE CORE SPACE - STORY MID REHEAT COIL, Design Size U-Factor Times Area Value [W/K], 17098.45076
Water Heating Coil Capacity Information,Coil:Heating:Water,ZONE CORE SPACE - STORY MID REHEAT COIL,801097.87
 Component Sizing Information, AirTerminal:SingleDuct:VAV:Reheat, ZONE CORE SPACE - STORY TOP VAV TERMINAL, Design Size Maximum Air Flow Rate [m3/s], 9.17199
 Component Sizing Information, AirTerminal:SingleDuct:VAV:Reheat, ZONE CORE SPACE - STORY TOP VAV TERMINAL, Design Size Constant Minimum Air Flow Fraction, 0.28717
 Component Sizing Information, AirTerminal:SingleDuct:VAV:Reheat, ZONE CORE SPACE - STORY TOP VAV TERMINAL, User-Specified Constant Minimum Air Flow Fraction, 0.20000
 Component Sizing Information, AirTerminal:SingleDuct:VAV:Reheat, ZONE CORE SPACE - STORY TOP VAV TERMINAL, Design Size Minimum Air Flow Rate [m3/s], 1.83440
 Component Sizing Information, AirTerminal:SingleDuct:VAV:Reheat, ZONE CORE SPACE - STORY TOP VAV TERMINAL, Design Size Maximum Flow Fraction during Reheat [], 0.76580
 Component Sizing Information, AirTerminal:SingleDuct:VAV:Reheat, ZONE CORE SPACE - STORY TOP VAV TERMINAL, User-Specified Maximum Flow Fraction during Reheat [], 0.50000
 Component Sizing Information, AirTerminal:SingleDuct:VAV:Reheat, ZONE CORE SPACE - STORY TOP VAV TERMINAL, Design Size Maximum Flow per Zone Floor Area during Reheat [m3/s-m2], 1.32672E-003
 Component Sizing Information, AirTerminal:SingleDuct:VAV:Reheat, ZONE CORE SPACE - STORY TOP VAV TERMINAL, Design Size Maximum Reheat Water Flow Rate [m3/s], 2.45274E-003
 Component Sizing Information, AirTerminal:SingleDuct:VAV:Reheat, ZONE CORE SPACE - STORY TOP VAV TERMINAL, Design Size Reheat Coil Sizing Air Volume Flow Rate [m3/s], 3.64329
 Component Sizing Information, AirTerminal:SingleDuct:VAV:Reheat, ZONE CORE SPACE - STORY TOP VAV TERMINAL, Design Size Reheat Coil Sizing Inlet Air Temperature [C], 12.77778
 Component Sizing Information, AirTerminal:SingleDuct:VAV:Reheat, ZONE CORE SPACE - STORY TOP VAV TERMINAL, Design Size Reheat Coil Sizing Inlet Air Humidity Ratio [kgWater/kgDryAir], 8.00000E-003
 Component Sizing Information, Coil:Heating:Water, ZONE CORE SPACE - STORY TOP REHEAT COIL, Design Size Rated Capacity [W], 112136.45351
 Component Sizing Information, Coil:Heating:Water, ZONE CORE SPACE - STORY TOP REHEAT COIL, Design Size Maximum Water Flow Rate [m3/s], 2.45274E-003
 Component Sizing Information, Coil:Heating:Water, ZONE CORE SPACE - STORY TOP REHEAT COIL, Design Size U-Factor Times Area Value [W/K], 2335.74147
Water Heating Coil Capacity Information,Coil:Heating:Water,ZONE CORE SPACE - STORY TOP REHEAT COIL,106042.37
 Component Sizing Information, AirTerminal:SingleDuct:ConstantVolume:NoReheat, ZONE EAST PERIMETER SPACE - STORY GROUND PSZ-AC DIFFUSER, Design Size Maximum Air Flow Rate [m3/s], 2.27585
 Component Sizing Information, AirTerminal:SingleDuct:VAV:Reheat, ZONE EAST PERIMETER SPACE - STORY MID VAV TERMINAL, Design Size Maximum Air Flow Rate [m3/s], 50.75098
 Component Sizing Information, AirTerminal:SingleDuct:VAV:Reheat, ZONE EAST PERIMETER SPACE - STORY MID VAV TERMINAL, Design Size Constant Minimum Air Flow Fraction, 6.31119E-002
 Component Sizing Information, AirTerminal:SingleDuct:VAV:Reheat, ZONE EAST PERIMETER SPACE - STORY MID VAV TERMINAL, User-Specified Constant Minimum Air Flow Fraction, 0.20000
 Component Sizing Information, AirTerminal:SingleDuct:VAV:Reheat, ZONE EAST PERIMETER SPACE - STORY MID VAV TERMINAL, Design Size Minimum Air Flow Rate [m3/s], 10.15020
 Component Sizing Information, AirTerminal:SingleDuct:VAV:Reheat, ZONE EAST PERIMETER SPACE - STORY MID VAV TERMINAL, Design Size Maximum Flow Fraction during Reheat [], 0.30000
 Component Sizing Information, AirTerminal:SingleDuct:VAV:Reheat, ZONE EAST PERIMETER SPACE - STORY MID VAV TERMINAL, User-Specified Maximum Flow Fraction during Reheat [], 0.50000
 Component Sizing Information, AirTerminal:SingleDuct:VAV:Reheat, ZONE EAST PERIMETER SPACE - STORY MID VAV TERMINAL, Design Size Maximum Flow per Zone Floor Area during Reheat [m3/s-m2], 6.03689E-003
 Component Sizing Information, AirTerminal:SingleDuct:VAV:Reheat, ZONE EAST PERIMETER SPACE - STORY MID VAV TERMINAL, Design Size Maximum Reheat Water Flow Rate [m3/s], 1.04033E-002
 Component Sizing Information, AirTerminal:SingleDuct:VAV:Reheat, ZONE EAST PERIMETER SPACE - STORY MID VAV TERMINAL, Design Size Reheat Coil Sizing Air Volume Flow Rate [m3/s], 15.53877
 Component Sizing Information, AirTerminal:SingleDuct:VAV:Reheat, ZONE EAST PERIMETER SPACE - STORY MID VAV TERMINAL, Design Size Reheat Coil Sizing Inlet Air Temperature [C], 12.77778
 Component Sizing Information, AirTerminal:SingleDuct:VAV:Reheat, ZONE EAST PERIMETER SPACE - STORY MID VAV TERMINAL, Design Size Reheat Coil Sizing Inlet Air Humidity Ratio [kgWater/kgDryAir], 8.00000E-003
 Component Sizing Information, Coil:Heating:Water, ZONE EAST PERIMETER SPACE - STORY MID REHEAT COIL, Design Size Rated Capacity [W], 475627.60162
 Component Sizing Information, Coil:Heating:Water, ZONE EAST PERIMETER SPACE - STORY MID REHEAT COIL, Design Size Maximum Water Flow Rate [m3/s], 1.04033E-002
 Component Sizing Information, Coil:Heating:Water, ZONE EAST PERIMETER SPACE - STORY MID REHEAT COIL, Design Size U-Factor Times Area Value [W/K], 9890.51808
Water Heating Coil Capacity Information,Coil:Heating:Water,ZONE EAST PERIMETER SPACE - STORY MID REHEAT COIL,449780.99
 Component Sizing Information, AirTerminal:SingleDuct:VAV:Reheat, ZONE EAST PERIMETER SPACE - STORY TOP VAV TERMINAL, Design Size Maximum Air Flow Rate [m3/s], 3.14032
 Component Sizing Information, AirTerminal:SingleDuct:VAV:Reheat, ZONE EAST PERIMETER SPACE - STORY TOP VAV TERMINAL, Design Size Constant Minimum Air Flow Fraction, 5.66643E-002
 Component Sizing Information, AirTerminal:SingleDuct:VAV:Reheat, ZONE EAST PERIMETER SPACE - STORY TOP VAV TERMINAL, User-Specified Constant Minimum Air Flow Fraction, 0.20000
 Component Sizing Information, AirTerminal:SingleDuct:VAV:Reheat, ZONE EAST PERIMETER SPACE - STORY TOP VAV TERMINAL, Design Size Minimum Air Flow Rate [m3/s], 0.62806
 Component Sizing Information, AirTerminal:SingleDuct:VAV:Reheat, ZONE EAST PERIMETER SPACE - STORY TOP VAV TERMINAL, Design Size Maximum Flow Fraction during Reheat [], 0.30000
 Component Sizing Information, AirTerminal:SingleDuct:VAV:Reheat, ZONE EAST PERIMETER SPACE - STORY TOP VAV TERMINAL, User-Specified Maximum Flow Fraction during Reheat [], 0.50000
 Component Sizing Information, AirTerminal:SingleDuct:VAV:Reheat, ZONE EAST PERIMETER SPACE - STORY TOP VAV TERMINAL, Design Size Maximum Flow per Zone Floor Area during Reheat [m3/s-m2], 6.72381E-003
 Component Sizing Information, AirTerminal:SingleDuct:VAV:Reheat, ZONE EAST PERIMETER SPACE - STORY TOP VAV TERMINAL, Design Size Maximum Reheat Water Flow Rate [m3/s], 6.54331E-004
 Component Sizing Information, AirTerminal:SingleDuct:VAV:Reheat, ZONE EAST PERIMETER SPACE - STORY TOP VAV TERMINAL, Design Size Reheat Coil Sizing Air Volume Flow Rate [m3/s], 0.97743
 Component Sizing Information, AirTerminal:SingleDuct:VAV:Reheat, ZONE EAST PERIMETER SPACE - STORY TOP VAV TERMINAL, Design Size Reheat Coil Sizing Inlet Air Temperature [C], 12.77778
 Component Sizing Information, AirTerminal:SingleDuct:VAV:Reheat, ZONE EAST PERIMETER SPACE - STORY TOP VAV TERMINAL, Design Size Reheat Coil Sizing Inlet Air Humidity Ratio [kgWater/kgDryAir], 8.00000E-003
 Component Sizing Information, Coil:Heating:Water, ZONE EAST PERIMETER SPACE - STORY TOP REHEAT COIL, Design Size Rated Capacity [W], 29915.22684
 Component Sizing Information, Coil:Heating:Water, ZONE EAST PERIMETER SPACE - STORY TOP REHEAT COIL, Design Size Maximum Water Flow Rate [m3/s], 6.54331E-004
 Component Sizing Information, Coil:Heating:Water, ZONE EAST PERIMETER SPACE - STORY TOP REHEAT COIL, Design Size U-Factor Times Area Value [W/K], 622.05908
Water Heating Coil Capacity Information,Coil:Heating:Water,ZONE EAST PERIMETER SPACE - STORY TOP REHEAT COIL,28289.57
 Component Sizing Information, AirTerminal:SingleDuct:ConstantVolume:NoReheat, ZONE NORTH PERIMETER SPACE - STORY GROUND PSZ-AC DIFFUSER, Design Size Maximum Air Flow Rate [m3/s], 1.49204
 Component Sizing Information, AirTerminal:SingleDuct:VAV:Reheat, ZONE NORTH PERIMETER SPACE - STORY MID VAV TERMINAL, Design Size Maximum Air Flow Rate [m3/s], 42.92774
 Component Sizing Information, AirTerminal:SingleDuct:VAV:Reheat, ZONE NORTH PERIMETER SPACE - STORY MID VAV TERMINAL, Design Size Constant Minimum Air Flow Fraction, 0.11526
 Component Sizing Information, AirTerminal:SingleDuct:VAV:Reheat, ZONE NORTH PERIMETER SPACE - STORY MID VAV TERMINAL, User-Specified Constant Minimum Air Flow Fraction, 0.20000
 Component Sizing Information, AirTerminal:SingleDuct:VAV:Reheat, ZONE NORTH PERIMETER SPACE - STORY MID VAV TERMINAL, Design Size Minimum Air Flow Rate [m3/s], 8.58555
 Component Sizing Information, AirTerminal:SingleDuct:VAV:Reheat, ZONE NORTH PERIMETER SPACE - STORY MID VAV TERMINAL, Design Size Maximum Flow Fraction during Reheat [], 0.30736
 Component Sizing Information, AirTerminal:SingleDuct:VAV:Reheat, ZONE NORTH PERIMETER SPACE - STORY MID VAV TERMINAL, User-Specified Maximum Flow Fraction during Reheat [], 0.50000
 Component Sizing Information, AirTerminal:SingleDuct:VAV:Reheat, ZONE NORTH PERIMETER SPACE - STORY MID VAV TERMINAL, Design Size Maximum Flow per Zone Floor Area during Reheat [m3/s-m2], 3.30558E-003
 Component Sizing Information, AirTerminal:SingleDuct:VAV:Reheat, ZONE NORTH PERIMETER SPACE - STORY MID VAV TERMINAL, Design Size Maximum Reheat Water Flow Rate [m3/s], 1.54959E-002
 Component Sizing Information, AirTerminal:SingleDuct:VAV:Reheat, ZONE NORTH PERIMETER SPACE - STORY MID VAV TERMINAL, Design Size Reheat Coil Sizing Air Volume Flow Rate [m3/s], 23.14362
 Component Sizing Information, AirTerminal:SingleDuct:VAV:Reheat, ZONE NORTH PERIMETER SPACE - STORY MID VAV TERMINAL, Design Size Reheat Coil Sizing Inlet Air Temperature [C], 12.77778
 Component Sizing Information, AirTerminal:SingleDuct:VAV:Reheat, ZONE NORTH PERIMETER SPACE - STORY MID VAV TERMINAL, Design Size Reheat Coil Sizing Inlet Air Humidity Ratio [kgWater/kgDryAir], 8.00000E-003
 Component Sizing Information, Coil:Heating:Water, ZONE NORTH PERIMETER SPACE - STORY MID REHEAT COIL, Design Size Rated Capacity [W], 708453.35614
 Component Sizing Information, Coil:Heating:Water, ZONE NORTH PERIMETER SPACE - STORY MID REHEAT COIL, Design Size Maximum Water Flow Rate [m3/s], 1.54959E-002
 Component Sizing Information, Coil:Heating:Water, ZONE NORTH PERIMETER SPACE - STORY MID REHEAT COIL, Design Size U-Factor Times Area Value [W/K], 14732.35448
Water Heating Coil Capacity Information,Coil:Heating:Water,ZONE NORTH PERIMETER SPACE - STORY MID REHEAT COIL,669954.47
 Component Sizing Information, AirTerminal:SingleDuct:VAV:Reheat, ZONE NORTH PERIMETER SPACE - STORY TOP VAV TERMINAL, Design Size Maximum Air Flow Rate [m3/s], 2.67806
 Component Sizing Information, AirTerminal:SingleDuct:VAV:Reheat, ZONE NORTH PERIMETER SPACE - STORY TOP VAV TERMINAL, Design Size Constant Minimum Air Flow Fraction, 0.10264
 Component Sizing Information, AirTerminal:SingleDuct:VAV:Reheat, ZONE NORTH PERIMETER SPACE - STORY TOP VAV TERMINAL, User-Specified Constant Minimum Air Flow Fraction, 0.20000
 Component Sizing Information, AirTerminal:SingleDuct:VAV:Reheat, ZONE NORTH PERIMETER SPACE - STORY TOP VAV TERMINAL, Design Size Minimum Air Flow Rate [m3/s], 0.53561
 Component Sizing Information, AirTerminal:SingleDuct:VAV:Reheat, ZONE NORTH PERIMETER SPACE - STORY TOP VAV TERMINAL, Design Size Maximum Flow Fraction during Reheat [], 0.30000
 Component Sizing Information, AirTerminal:SingleDuct:VAV:Reheat, ZONE NORTH PERIMETER SPACE - STORY TOP VAV TERMINAL, User-Specified Maximum Flow Fraction during Reheat [], 0.50000
 Component Sizing Information, AirTerminal:SingleDuct:VAV:Reheat, ZONE NORTH PERIMETER SPACE - STORY TOP VAV TERMINAL, Design Size Maximum Flow per Zone Floor Area during Reheat [m3/s-m2], 3.71195E-003
 Component Sizing Information, AirTerminal:SingleDuct:VAV:Reheat, ZONE NORTH PERIMETER SPACE - STORY TOP VAV TERMINAL, Design Size Maximum Reheat Water Flow Rate [m3/s], 9.77169E-004
 Component Sizing Information, AirTerminal:SingleDuct:VAV:Reheat, ZONE NORTH PERIMETER SPACE - STORY TOP VAV TERMINAL, Design Size Reheat Coil Sizing Air Volume Flow Rate [m3/s], 1.45959
 Component Sizing Information, AirTerminal:SingleDuct:VAV:Reheat, ZONE NORTH PERIMETER SPACE - STORY TOP VAV TERMINAL, Design Size Reheat Coil Sizing Inlet Air Temperature [C], 12.77778
 Component Sizing Information, AirTerminal:SingleDuct:VAV:Reheat, ZONE NORTH PERIMETER SPACE - STORY TOP VAV TERMINAL, Design Size Reheat Coil Sizing Inlet Air Humidity Ratio [kgWater/kgDryAir], 8.00000E-003
 Component Sizing Information, Coil:Heating:Water, ZONE NORTH PERIMETER SPACE - STORY TOP REHEAT COIL, Design Size Rated Capacity [W], 44675.00796
 Component Sizing Information, Coil:Heating:Water, ZONE NORTH PERIMETER SPACE - STORY TOP REHEAT COIL, Design Size Maximum Water Flow Rate [m3/s], 9.77169E-004
 Component Sizing Information, Coil:Heating:Water, ZONE NORTH PERIMETER SPACE - STORY TOP REHEAT COIL, Design Size U-Factor Times Area Value [W/K], 928.99163
Water Heating Coil Capacity Information,Coil:Heating:Water,ZONE NORTH PERIMETER SPACE - STORY TOP REHEAT COIL,42247.27
 Component Sizing Information, AirTerminal:SingleDuct:ConstantVolume:NoReheat, ZONE SOUTH PERIMETER SPACE - STORY GROUND PSZ-AC DIFFUSER, Design Size Maximum Air Flow Rate [m3/s], 1.96683
 Component Sizing Information, AirTerminal:SingleDuct:VAV:Reheat, ZONE SOUTH PERIMETER SPACE - STORY MID VAV TERMINAL, Design Size Maximum Air Flow Rate [m3/s], 51.33683
 Component Sizing Information, AirTerminal:SingleDuct:VAV:Reheat, ZONE SOUTH PERIMETER SPACE - STORY MID VAV TERMINAL, Design Size Constant Minimum Air Flow Fraction, 9.63800E-002
 Component Sizing Information, AirTerminal:SingleDuct:VAV:Reheat, ZONE SOUTH PERIMETER SPACE - STORY MID VAV TERMINAL, User-Specified Constant Minimum Air Flow Fraction, 0.20000
 Component Sizing Information, AirTerminal:SingleDuct:VAV:Reheat, ZONE SOUTH PERIMETER SPACE - STORY MID VAV TERMINAL, Design Size Minimum Air Flow Rate [m3/s], 10.26737
 Component Sizing Information, AirTerminal:SingleDuct:VAV:Reheat, ZONE SOUTH PERIMETER SPACE - STORY MID VAV TERMINAL, Design Size Maximum Flow Fraction during Reheat [], 0.30000
 Component Sizing Information, AirTerminal:SingleDuct:VAV:Reheat, ZONE SOUTH PERIMETER SPACE - STORY MID VAV TERMINAL, User-Specified Maximum Flow Fraction during Reheat [], 0.50000
 Component Sizing Information, AirTerminal:SingleDuct:VAV:Reheat, ZONE SOUTH PERIMETER SPACE - STORY MID VAV TERMINAL, Design Size Maximum Flow per Zone Floor Area during Reheat [m3/s-m2], 3.95310E-003
 Component Sizing Information, AirTerminal:SingleDuct:VAV:Reheat, ZONE SOUTH PERIMETER SPACE - STORY MID VAV TERMINAL, Design Size Maximum Reheat Water Flow Rate [m3/s], 1.55674E-002
 Component Sizing Information, AirTerminal:SingleDuct:VAV:Reheat, ZONE SOUTH PERIMETER SPACE - STORY MID VAV TERMINAL, Design Size Reheat Coil Sizing Air Volume Flow Rate [m3/s], 23.25062
 Component Sizing Information, AirTerminal:SingleDuct:VAV:Reheat, ZONE SOUTH PERIMETER SPACE - STORY MID VAV TERMINAL, Design Size Reheat Coil Sizing Inlet Air Temperature [C], 12.77778
 Component Sizing Information, AirTerminal:SingleDuct:VAV:Reheat, ZONE SOUTH PERIMETER SPACE - STORY MID VAV TERMINAL, Design Size Reheat Coil Sizing Inlet Air Humidity Ratio [kgWater/kgDryAir], 8.00000E-003
 Component Sizing Information, Coil:Heating:Water, ZONE SOUTH PERIMETER SPACE - STORY MID REHEAT COIL, Design Size Rated Capacity [W], 711722.66511
 Component Sizing Information, Coil:Heating:Water, ZONE SOUTH PERIMETER SPACE - STORY MID REHEAT COIL, Design Size Maximum Water Flow Rate [m3/s], 1.55674E-002
 Component Sizing Information, Coil:Heating:Water, ZONE SOUTH PERIMETER SPACE - STORY MID REHEAT COIL, Design Size U-Factor Times Area Value [W/K], 14800.30186
Water Heating Coil Capacity Information,Coil:Heating:Water,ZONE SOUTH PERIMETER SPACE - STORY MID REHEAT COIL,673046.12
 Component Sizing Information, AirTerminal:SingleDuct:VAV:Reheat, ZONE SOUTH PERIMETER SPACE - STORY TOP VAV TERMINAL, Design Size Maximum Air Flow Rate [m3/s], 3.24133
 Component Sizing Information, AirTerminal:SingleDuct:VAV:Reheat, ZONE SOUTH PERIMETER SPACE - STORY TOP VAV TERMINAL, Design Size Constant Minimum Air Flow Fraction, 8.48046E-002
 Component Sizing Information, AirTerminal:SingleDuct:VAV:Reheat, ZONE SOUTH PERIMETER SPACE - STORY TOP VAV TERMINAL, User-Specified Constant Minimum Air Flow Fraction, 0.20000
 Component Sizing Information, AirTerminal:SingleDuct:VAV:Reheat, ZONE SOUTH PERIMETER SPACE - STORY TOP VAV TERMINAL, Design Size Minimum Air Flow Rate [m3/s], 0.64827
 Component Sizing Information, AirTerminal:SingleDuct:VAV:Reheat, ZONE SOUTH PERIMETER SPACE - STORY TOP VAV TERMINAL, Design Size Maximum Flow Fraction during Reheat [], 0.30000
 Component Sizing Information, AirTerminal:SingleDuct:VAV:Reheat, ZONE SOUTH PERIMETER SPACE - STORY TOP VAV TERMINAL, User-Specified Maximum Flow Fraction during Reheat [], 0.50000
 Component Sizing Information, AirTerminal:SingleDuct:VAV:Reheat, ZONE SOUTH PERIMETER SPACE - STORY TOP VAV TERMINAL, Design Size Maximum Flow per Zone Floor Area during Reheat [m3/s-m2], 4.49268E-003
 Component Sizing Information, AirTerminal:SingleDuct:VAV:Reheat, ZONE SOUTH PERIMETER SPACE - STORY TOP VAV TERMINAL, Design Size Maximum Reheat Water Flow Rate [m3/s], 9.84555E-004
 Component Sizing Information, AirTerminal:SingleDuct:VAV:Reheat, ZONE SOUTH PERIMETER SPACE - STORY TOP VAV TERMINAL, Design Size Reheat Coil Sizing Air Volume Flow Rate [m3/s], 1.47064
 Component Sizing Information, AirTerminal:SingleDuct:VAV:Reheat, ZONE SOUTH PERIMETER SPACE - STORY TOP VAV TERMINAL, Design Size Reheat Coil Sizing Inlet Air Temperature [C], 12.77778
 Component Sizing Information, AirTerminal:SingleDuct:VAV:Reheat, ZONE SOUTH PERIMETER SPACE - STORY TOP VAV TERMINAL, Design Size Reheat Coil Sizing Inlet Air Humidity Ratio [kgWater/kgDryAir], 8.00000E-003
 Component Sizing Information, Coil:Heating:Water, ZONE SOUTH PERIMETER SPACE - STORY TOP REHEAT COIL, Design Size Rated Capacity [W], 45012.69291
[...]
 Warmup Convergence Information,ZONE WEST PERIMETER SPACE - STORY GROUND,SizingPeriod: TUCSON INTERNATIONAL AP ANN HTG 99.6% CONDNS DB 1 HVAC Sizing Pass 1,0.1125000047,0.4078265892,Pass,Pass,7.0826718691E-002,0.4038580710,Pass,Pass
 Warmup Convergence Information,ZONE WEST PERIMETER SPACE - STORY MID,SizingPeriod: TUCSON INTERNATIONAL AP ANN HTG 99.6% CONDNS DB 1 HVAC Sizing Pass 1,0.1153364043,0.5215485839,Pass,Pass,5.6079255912E-002,0.3031287770,Pass,Pass
 Warmup Convergence Information,ZONE WEST PERIMETER SPACE - STORY TOP,SizingPeriod: TUCSON INTERNATIONAL AP ANN HTG 99.6% CONDNS DB 1 HVAC Sizing Pass 1,0.1153174810,0.5298405881,Pass,Pass,4.7908587531E-002,0.2206498257,Pass,Pass
! <Plant Coincident Sizing Algorithm>,Plant Loop Name,Sizing Pass {#},Measured Mass Flow{kg/s},Measured Demand {W},Demand Calculated Mass Flow{kg/s},Sizes Changed {Yes/No},Previous Volume Flow Rate {m3/s},New Volume Flow Rate {m3/s},Demand Check Applied {Yes/No},Sizing Factor {},Normalized Change {},Specific Heat{J/kg-K},Density {kg/m3}
Plant Coincident Sizing Algorithm,CONDENSER WATER LOOP,1,281.6932130,5720015.90,245.2644187,Yes,0.281722,0.323980,No,1.1500,0.150000,4197.9300,999.8980
Environment,TUCSON INTERNATIONAL AP ANN CLG .4% CONDNS DB=>MWB 1,SizingPeriod:DesignDay,07/21,07/21,SummerDesignDay,1,N/A,N/A,N/A,N/A,N/A,N/A,Clark and Allen
Environment:Daylight Saving,No,SizingPeriod:DesignDay
Environment:Design Day Data,41.10,13.80,DefaultMultipliers,Wetbulb,19.00,{C},92332,300,5.0,0.00,No,No
Environment:Design Day Misc,202,1084.4,0.2082,0.1365,1.0,-6.23,20.6,ASHRAETau
 Component Sizing Information, PlantLoop, CHILLED WATER LOOP, Maximum Loop Flow Rate [m3/s], 0.23501
 Component Sizing Information, PlantLoop, CHILLED WATER LOOP, Plant Loop Volume [m3], 28.20142
 Component Sizing Information, PlantLoop, CONDENSER WATER LOOP, Maximum Loop Flow Rate [m3/s], 0.32398
 Component Sizing Information, PlantLoop, CONDENSER WATER LOOP, Plant Loop Volume [m3], 38.87763
 Component Sizing Information, PlantLoop, HOT WATER LOOP, Maximum Loop Flow Rate [m3/s], 7.86963E-002
 Component Sizing Information, PlantLoop, HOT WATER LOOP, Plant Loop Volume [m3], 9.44356
 Component Sizing Information, PlantLoop, OFFICE SHARED SERVICE WATER LOOP, Maximum Loop Flow Rate [m3/s], 9.99975E-004
 Component Sizing Information, PlantLoop, OFFICE SHARED SERVICE WATER LOOP, Plant Loop Volume [m3], 0.12000
 Component Sizing Information, Pump:VariableSpeed, CHILLED WATER LOOP SECONDARY PUMP, Design Flow Rate [m3/s], 0.23501
 Component Sizing Information, Pump:VariableSpeed, CHILLED WATER LOOP SECONDARY PUMP, Design Power Consumption [W], 45029.87817
 Component Sizing Information, Chiller:Electric:EIR, 90.1-2010 WATERCOOLED  ROTARY SCREW CHILLER 0, Design Size Reference Chilled Water Flow Rate [m3/s], 0.23501
 Component Sizing Information, Chiller:Electric:EIR, 90.1-2010 WATERCOOLED  ROTARY SCREW CHILLER 0, Design Size Reference Capacity [W], 5535151.25387
 Component Sizing Information, Chiller:Electric:EIR, 90.1-2010 WATERCOOLED  ROTARY SCREW CHILLER 0, Design Size Reference Condenser Fluid Flow Rate [m3/s], 0.28172
! <Chiller Standard Rating Information>, Component Type, Component Name, IPLV in SI Units {W/W}, IPLV in IP Units {Btu/W-h}
 Chiller Standard Rating Information, Chiller:Electric:EIR, 90.1-2010 WATERCOOLED  ROTARY SCREW CHILLER 0, 7.95, 27.12
 Component Sizing Information, Pump:ConstantSpeed, CHILLED WATER LOOP PRIMARY PUMP, Design Flow Rate [m3/s], 0.23501
 Component Sizing Information, Pump:ConstantSpeed, CHILLED WATER LOOP PRIMARY PUMP, Design Power Consumption [W], 15009.95939
 Component Sizing Information, CoolingTower:VariableSpeed, PROPELLER OR AXIAL VARIABLE SPEED FAN OPEN COOLING TOWER, Design Water Flow Rate [m3/s], 0.32398
 Component Sizing Information, CoolingTower:VariableSpeed, PROPELLER OR AXIAL VARIABLE SPEED FAN OPEN COOLING TOWER, Fan Power at Design Air Flow Rate [W], 78987.02471
 Component Sizing Information, CoolingTower:VariableSpeed, PROPELLER OR AXIAL VARIABLE SPEED FAN OPEN COOLING TOWER, Design Air Flow Rate [m3/s], 228.10508
 Component Sizing Information, CoolingTower:VariableSpeed, PROPELLER OR AXIAL VARIABLE SPEED FAN OPEN COOLING TOWER, Nominal Capacity [W], 7481743.69993
 Component Sizing Information, CoolingTower:VariableSpeed, PROPELLER OR AXIAL VARIABLE SPEED FAN OPEN COOLING TOWER, Air Flow Rate in free convection regime [m3/s], 45.62102
 Component Sizing Information, CoolingTower:VariableSpeed, PROPELLER OR AXIAL VARIABLE SPEED FAN OPEN COOLING TOWER, Tower capacity in free convection regime at design conditions [W], 935217.96249
 Component Sizing Information, Pump:ConstantSpeed, CONDENSER WATER LOOP CONSTANT PUMP, Design Flow Rate [m3/s], 0.32398
 Component Sizing Information, Pump:ConstantSpeed, CONDENSER WATER LOOP CONSTANT PUMP, Design Power Consumption [W], 68560.41518
 Component Sizing Information, Boiler:HotWater, BOILER, Design Size Nominal Capacity [W], 3597901.89323
 Component Sizing Information, Boiler:HotWater, BOILER, Design Size Design Water Flow Rate [m3/s], 7.86963E-002
 Component Sizing Information, Pump:VariableSpeed, HOT WATER LOOP PUMP, Design Flow Rate [m3/s], 7.86963E-002
 Component Sizing Information, Pump:VariableSpeed, HOT WATER LOOP PUMP, Design Power Consumption [W], 20105.00894
 Component Sizing Information, WaterHeater:Mixed, 569GAL NATURALGAS WATER HEATER - 569KBTU/HR, Use Side Design Flow Rate [m3/s], 9.99975E-004
 Component Sizing Information, Pump:ConstantSpeed, OFFICE SHARED SERVICE WATER LOOP CIRCULATOR PUMP, Design Flow Rate [m3/s], 9.99975E-004
 Component Sizing Information, Pump:ConstantSpeed, OFFICE SHARED SERVICE WATER LOOP CIRCULATOR PUMP, Design Power Consumption [W], 127.73473
Environment,TUCSON INTERNATIONAL AP ANN CLG .4% CONDNS WB=>MDB 1,SizingPeriod:DesignDay,07/21,07/21,SummerDesignDay,1,N/A,N/A,N/A,N/A,N/A,N/A,Clark and Allen
Environment:Daylight Saving,No,SizingPeriod:DesignDay
Environment:Design Day Data,31.60,13.80,DefaultMultipliers,Wetbulb,22.50,{C},92332,300,5.0,0.00,No,No
Environment:Design Day Misc,202,1084.4,0.2082,0.1365,1.0,-6.23,20.6,ASHRAETau
Environment,TUCSON INTERNATIONAL AP ANN HTG 99.6% CONDNS DB 1,SizingPeriod:DesignDay,12/21,12/21,WinterDesignDay,1,N/A,N/A,N/A,N/A,N/A,N/A,Clark and Allen
Environment:Daylight Saving,No,SizingPeriod:DesignDay
Environment:Design Day Data,-0.20,0.00,DefaultMultipliers,Wetbulb,-0.20,{C},92332,140,2.5,0.00,No,No
Environment:Design Day Misc,355,1232.8,0.1424,5.7719E-002,1.0,2.45,-23.5,ASHRAEClearSky
Environment,TUCSON INTERNATIONAL AP ANN CLG .4% CONDNS DB=>MWB 1 HVAC Sizing Pass 1,SizingPeriod:DesignDay,07/21,07/21,SummerDesignDay,1,N/A,N/A,N/A,N/A,N/A,N/A,Clark and Allen
Environment:Daylight Saving,No,SizingPeriod:DesignDay
Environment:Design Day Data,41.10,13.80,DefaultMultipliers,Wetbulb,19.00,{C},92332,300,5.0,0.00,No,No
Environment:Design Day Misc,202,1084.4,0.2082,0.1365,1.0,-6.23,20.6,ASHRAETau
Environment,TUCSON INTERNATIONAL AP ANN CLG .4% CONDNS WB=>MDB 1 HVAC Sizing Pass 1,SizingPeriod:DesignDay,07/21,07/21,SummerDesignDay,1,N/A,N/A,N/A,N/A,N/A,N/A,Clark and Allen
Environment:Daylight Saving,No,SizingPeriod:DesignDay
Environment:Design Day Data,31.60,13.80,DefaultMultipliers,Wetbulb,22.50,{C},92332,300,5.0,0.00,No,No
Environment:Design Day Misc,202,1084.4,0.2082,0.1365,1.0,-6.23,20.6,ASHRAETau
Environment,TUCSON INTERNATIONAL AP ANN HTG 99.6% CONDNS DB 1 HVAC Sizing Pass 1,SizingPeriod:DesignDay,12/21,12/21,WinterDesignDay,1,N/A,N/A,N/A,N/A,N/A,N/A,Clark and Allen
Environment:Daylight Saving,No,SizingPeriod:DesignDay
Environment:Design Day Data,-0.20,0.00,DefaultMultipliers,Wetbulb,-0.20,{C},92332,140,2.5,0.00,No,No
Environment:Design Day Misc,355,1232.8,0.1424,5.7719E-002,1.0,2.45,-23.5,ASHRAEClearSky
Environment,TUCSON INTERNATIONAL AP ANN CLG .4% CONDNS DB=>MWB 1,SizingPeriod:DesignDay,07/21,07/21,SummerDesignDay,1,N/A,N/A,N/A,N/A,N/A,N/A,Clark and Allen
Environment:Daylight Saving,No,SizingPeriod:DesignDay
Environment:Design Day Data,41.10,13.80,DefaultMultipliers,Wetbulb,19.00,{C},92332,300,5.0,0.00,No,No
Environment:Design Day Misc,202,1084.4,0.2082,0.1365,1.0,-6.23,20.6,ASHRAETau
Environment:WarmupDays,  4
 Warmup Convergence Information,ZONE CORE SPACE - STORY GROUND,SizingPeriod: TUCSON INTERNATIONAL AP ANN CLG .4% CONDNS DB=>MWB 1,2.3496670420E-002,7.2671285222E-002,Pass,Pass,4.7457927710E-002,0.2773794670,Pass,Pass
 Warmup Convergence Information,ZONE CORE SPACE - STORY MID,SizingPeriod: TUCSON INTERNATIONAL AP ANN CLG .4% CONDNS DB=>MWB 1,5.6266600365E-002,0.1893982198,Pass,Pass,4.7378719394E-002,0.2295268756,Pass,Pass
 Warmup Convergence Information,ZONE CORE SPACE - STORY TOP,SizingPeriod: TUCSON INTERNATIONAL AP ANN CLG .4% CONDNS DB=>MWB 1,5.6266645803E-002,0.1878503118,Pass,Pass,4.8427830541E-002,0.2014594779,Pass,Pass
 Warmup Convergence Information,ZONE EAST PERIMETER SPACE - STORY GROUND,SizingPeriod: TUCSON INTERNATIONAL AP ANN CLG .4% CONDNS DB=>MWB 1,5.6268676214E-002,0.2361239683,Pass,Pass,0.2929573090,1.1394591584,Pass,Pass
 Warmup Convergence Information,ZONE EAST PERIMETER SPACE - STORY MID,SizingPeriod: TUCSON INTERNATIONAL AP ANN CLG .4% CONDNS DB=>MWB 1,3.8009299893E-002,0.1243227437,Pass,Pass,2.8552736233E-002,5.0698147709E-002,Pass,Pass
 Warmup Convergence Information,ZONE EAST PERIMETER SPACE - STORY TOP,SizingPeriod: TUCSON INTERNATIONAL AP ANN CLG .4% CONDNS DB=>MWB 1,4.5182627675E-002,0.1470390587,Pass,Pass,3.0306322552E-002,4.0700531370E-002,Pass,Pass
 Warmup Convergence Information,ZONE NORTH PERIMETER SPACE - STORY GROUND,SizingPeriod: TUCSON INTERNATIONAL AP ANN CLG .4% CONDNS DB=>MWB 1,5.6270278440E-002,0.2308814039,Pass,Pass,0.2570289659,0.6302555149,Pass,Pass
 Warmup Convergence Information,ZONE NORTH PERIMETER SPACE - STORY MID,SizingPeriod: TUCSON INTERNATIONAL AP ANN CLG .4% CONDNS DB=>MWB 1,4.9290026448E-002,0.1807360773,Pass,Pass,3.2841532421E-002,0.1187701485,Pass,Pass
 Warmup Convergence Information,ZONE NORTH PERIMETER SPACE - STORY TOP,SizingPeriod: TUCSON INTERNATIONAL AP ANN CLG .4% CONDNS DB=>MWB 1,4.1231543281E-002,0.1418353493,Pass,Pass,3.2553993538E-002,8.9342452202E-002,Pass,Pass
 Warmup Convergence Information,ZONE SOUTH PERIMETER SPACE - STORY GROUND,SizingPeriod: TUCSON INTERNATIONAL AP ANN CLG .4% CONDNS DB=>MWB 1,5.6269508176E-002,0.2325445247,Pass,Pass,0.3062876121,0.8900233924,Pass,Pass
 Warmup Convergence Information,ZONE SOUTH PERIMETER SPACE - STORY MID,SizingPeriod: TUCSON INTERNATIONAL AP ANN CLG .4% CONDNS DB=>MWB 1,4.0168201835E-002,0.1520649433,Pass,Pass,3.1787040802E-002,8.8983679604E-002,Pass,Pass
 Warmup Convergence Information,ZONE SOUTH PERIMETER SPACE - STORY TOP,SizingPeriod: TUCSON INTERNATIONAL AP ANN CLG .4% CONDNS DB=>MWB 1,3.7545697426E-002,0.1217903647,Pass,Pass,3.2036652954E-002,6.1187470732E-002,Pass,Pass
 Warmup Convergence Information,ZONE WEST PERIMETER SPACE - STORY GROUND,SizingPeriod: TUCSON INTERNATIONAL AP ANN CLG .4% CONDNS DB=>MWB 1,5.6268586571E-002,0.2389378254,Pass,Pass,0.1517133064,0.4405732891,Pass,Pass
 Warmup Convergence Information,ZONE WEST PERIMETER SPACE - STORY MID,SizingPeriod: TUCSON INTERNATIONAL AP ANN CLG .4% CONDNS DB=>MWB 1,3.3259859840E-002,9.7445860232E-002,Pass,Pass,3.2320352406E-002,5.1120703234E-002,Pass,Pass
 Warmup Convergence Information,ZONE WEST PERIMETER SPACE - STORY TOP,SizingPeriod: TUCSON INTERNATIONAL AP ANN CLG .4% CONDNS DB=>MWB 1,2.9040044274E-002,5.0351219840E-002,Pass,Pass,3.4555607699E-002,3.8997041438E-002,Pass,Pass
Environment,TUCSON INTERNATIONAL AP ANN CLG .4% CONDNS WB=>MDB 1,SizingPeriod:DesignDay,07/21,07/21,SummerDesignDay,1,N/A,N/A,N/A,N/A,N/A,N/A,Clark and Allen
Environment:Daylight Saving,No,SizingPeriod:DesignDay
Environment:Design Day Data,31.60,13.80,DefaultMultipliers,Wetbulb,22.50,{C},92332,300,5.0,0.00,No,No
Environment:Design Day Misc,202,1084.4,0.2082,0.1365,1.0,-6.23,20.6,ASHRAETau
Environment:WarmupDays,  4
 Warmup Convergence Information,ZONE CORE SPACE - STORY GROUND,SizingPeriod: TUCSON INTERNATIONAL AP ANN CLG .4% CONDNS WB=>MDB 1,2.1918819218E-002,7.5228611521E-002,Pass,Pass,4.5446995812E-002,0.2533875863,Pass,Pass
 Warmup Convergence Information,ZONE CORE SPACE - STORY MID,SizingPeriod: TUCSON INTERNATIONAL AP ANN CLG .4% CONDNS WB=>MDB 1,5.6282195641E-002,0.2110056044,Pass,Pass,4.3866147950E-002,0.2125430495,Pass,Pass
 Warmup Convergence Information,ZONE CORE SPACE - STORY TOP,SizingPeriod: TUCSON INTERNATIONAL AP ANN CLG .4% CONDNS WB=>MDB 1,5.8376649609E-002,0.1949752044,Pass,Pass,3.9485834869E-002,0.1665271399,Pass,Pass
 Warmup Convergence Information,ZONE EAST PERIMETER SPACE - STORY GROUND,SizingPeriod: TUCSON INTERNATIONAL AP ANN CLG .4% CONDNS WB=>MDB 1,5.4365661513E-002,0.1590955202,Pass,Pass,9.4758318120E-002,0.2169409832,Pass,Pass
 Warmup Convergence Information,ZONE EAST PERIMETER SPACE - STORY MID,SizingPeriod: TUCSON INTERNATIONAL AP ANN CLG .4% CONDNS WB=>MDB 1,7.3829955102E-002,0.1827507509,Pass,Pass,2.8126563122E-002,3.9509274718E-002,Pass,Pass
 Warmup Convergence Information,ZONE EAST PERIMETER SPACE - STORY TOP,SizingPeriod: TUCSON INTERNATIONAL AP ANN CLG .4% CONDNS WB=>MDB 1,9.7195530519E-002,0.2166119929,Pass,Pass,3.3230845197E-002,4.0641981601E-002,Pass,Pass
 Warmup Convergence Information,ZONE NORTH PERIMETER SPACE - STORY GROUND,SizingPeriod: TUCSON INTERNATIONAL AP ANN CLG .4% CONDNS WB=>MDB 1,4.8386378861E-002,0.1353000102,Pass,Pass,0.1786421863,0.9086287066,Pass,Pass
 Warmup Convergence Information,ZONE NORTH PERIMETER SPACE - STORY MID,SizingPeriod: TUCSON INTERNATIONAL AP ANN CLG .4% CONDNS WB=>MDB 1,2.7518049101E-002,6.1361465559E-002,Pass,Pass,2.3417735986E-002,2.8162375286E-002,Pass,Pass
 Warmup Convergence Information,ZONE NORTH PERIMETER SPACE - STORY TOP,SizingPeriod: TUCSON INTERNATIONAL AP ANN CLG .4% CONDNS WB=>MDB 1,6.2937243714E-002,9.3526643587E-002,Pass,Pass,2.8116021743E-002,3.2226880244E-002,Pass,Pass
 Warmup Convergence Information,ZONE SOUTH PERIMETER SPACE - STORY GROUND,SizingPeriod: TUCSON INTERNATIONAL AP ANN CLG .4% CONDNS WB=>MDB 1,4.6824806452E-002,0.1299640439,Pass,Pass,0.1401559415,0.3712111281,Pass,Pass
 Warmup Convergence Information,ZONE SOUTH PERIMETER SPACE - STORY MID,SizingPeriod: TUCSON INTERNATIONAL AP ANN CLG .4% CONDNS WB=>MDB 1,3.4200102391E-002,5.4504770130E-002,Pass,Pass,2.5089433633E-002,2.2144832791E-002,Pass,Pass
 Warmup Convergence Information,ZONE SOUTH PERIMETER SPACE - STORY TOP,SizingPeriod: TUCSON INTERNATIONAL AP ANN CLG .4% CONDNS WB=>MDB 1,7.2058532041E-002,9.3938842726E-002,Pass,Pass,3.0324995519E-002,2.8751410897E-002,Pass,Pass
 Warmup Convergence Information,ZONE WEST PERIMETER SPACE - STORY GROUND,SizingPeriod: TUCSON INTERNATIONAL AP ANN CLG .4% CONDNS WB=>MDB 1,5.7285031401E-002,0.1775954572,Pass,Pass,0.1720139009,0.4751972046,Pass,Pass
 Warmup Convergence Information,ZONE WEST PERIMETER SPACE - STORY MID,SizingPeriod: TUCSON INTERNATIONAL AP ANN CLG .4% CONDNS WB=>MDB 1,5.5052006202E-002,5.9597816010E-002,Pass,Pass,3.2169379360E-002,4.5031340749E-002,Pass,Pass
 Warmup Convergence Information,ZONE WEST PERIMETER SPACE - STORY TOP,SizingPeriod: TUCSON INTERNATIONAL AP ANN CLG .4% CONDNS WB=>MDB 1,9.8419867457E-002,9.9073886239E-002,Pass,Pass,3.9075882292E-002,5.3206214006E-002,Pass,Pass
Environment,TUCSON INTERNATIONAL AP ANN HTG 99.6% CONDNS DB 1,SizingPeriod:DesignDay,12/21,12/21,WinterDesignDay,1,N/A,N/A,N/A,N/A,N/A,N/A,Clark and Allen
Environment:Daylight Saving,No,SizingPeriod:DesignDay
Environment:Design Day Data,-0.20,0.00,DefaultMultipliers,Wetbulb,-0.20,{C},92332,140,2.5,0.00,No,No
Environment:Design Day Misc,355,1232.8,0.1424,5.7719E-002,1.0,2.45,-23.5,ASHRAEClearSky
Environment:WarmupDays,  5
 Warmup Convergence Information,ZONE CORE SPACE - STORY GROUND,SizingPeriod: TUCSON INTERNATIONAL AP ANN HTG 99.6% CONDNS DB 1,5.9894007623E-002,0.1423530142,Pass,Pass,7.8954000065E-002,0.3674240803,Pass,Pass
 Warmup Convergence Information,ZONE CORE SPACE - STORY MID,SizingPeriod: TUCSON INTERNATIONAL AP ANN HTG 99.6% CONDNS DB 1,8.2699676737E-002,0.2055128212,Pass,Pass,6.5972642184E-002,0.1797897645,Pass,Pass
 Warmup Convergence Information,ZONE CORE SPACE - STORY TOP,SizingPeriod: TUCSON INTERNATIONAL AP ANN HTG 99.6% CONDNS DB 1,0.1131662938,0.3026929665,Pass,Pass,0.2556921543,1.0719538100,Pass,Pass
 Warmup Convergence Information,ZONE EAST PERIMETER SPACE - STORY GROUND,SizingPeriod: TUCSON INTERNATIONAL AP ANN HTG 99.6% CONDNS DB 1,0.1125000031,0.4173232728,Pass,Pass,8.4808895616E-002,0.5197374830,Pass,Pass
 Warmup Convergence Information,ZONE EAST PERIMETER SPACE - STORY MID,SizingPeriod: TUCSON INTERNATIONAL AP ANN HTG 99.6% CONDNS DB 1,0.1153357283,0.5191949627,Pass,Pass,5.5254160142E-002,0.2988093665,Pass,Pass
 Warmup Convergence Information,ZONE EAST PERIMETER SPACE - STORY TOP,SizingPeriod: TUCSON INTERNATIONAL AP ANN HTG 99.6% CONDNS DB 1,0.1152297236,0.5281951298,Pass,Pass,4.7510959399E-002,0.2182174478,Pass,Pass
 Warmup Convergence Information,ZONE NORTH PERIMETER SPACE - STORY GROUND,SizingPeriod: TUCSON INTERNATIONAL AP ANN HTG 99.6% CONDNS DB 1,0.1134500297,0.4609516160,Pass,Pass,8.5357511179E-002,0.3390194170,Pass,Pass
 Warmup Convergence Information,ZONE NORTH PERIMETER SPACE - STORY MID,SizingPeriod: TUCSON INTERNATIONAL AP ANN HTG 99.6% CONDNS DB 1,0.1146927214,0.4890277084,Pass,Pass,5.7391370656E-002,0.3088148943,Pass,Pass
 Warmup Convergence Information,ZONE NORTH PERIMETER SPACE - STORY TOP,SizingPeriod: TUCSON INTERNATIONAL AP ANN HTG 99.6% CONDNS DB 1,0.1149516525,0.4991509277,Pass,Pass,4.8847126621E-002,0.2247774406,Pass,Pass
 Warmup Convergence Information,ZONE SOUTH PERIMETER SPACE - STORY GROUND,SizingPeriod: TUCSON INTERNATIONAL AP ANN HTG 99.6% CONDNS DB 1,0.1131184183,0.4491400049,Pass,Pass,0.4056781821,3.4922336386,Pass,Pass
 Warmup Convergence Information,ZONE SOUTH PERIMETER SPACE - STORY MID,SizingPeriod: TUCSON INTERNATIONAL AP ANN HTG 99.6% CONDNS DB 1,0.1147467213,0.4996772388,Pass,Pass,5.6643066830E-002,0.3055301996,Pass,Pass
 Warmup Convergence Information,ZONE SOUTH PERIMETER SPACE - STORY TOP,SizingPeriod: TUCSON INTERNATIONAL AP ANN HTG 99.6% CONDNS DB 1,0.1145466104,0.5109015929,Pass,Pass,4.8101248237E-002,0.2209813459,Pass,Pass
 Warmup Convergence Information,ZONE WEST PERIMETER SPACE - STORY GROUND,SizingPeriod: TUCSON INTERNATIONAL AP ANN HTG 99.6% CONDNS DB 1,0.1125000047,0.4078265892,Pass,Pass,7.0826718691E-002,0.4038580710,Pass,Pass
 Warmup Convergence Information,ZONE WEST PERIMETER SPACE - STORY MID,SizingPeriod: TUCSON INTERNATIONAL AP ANN HTG 99.6% CONDNS DB 1,0.1153364043,0.5215485839,Pass,Pass,5.6079255914E-002,0.3031287769,Pass,Pass
 Warmup Convergence Information,ZONE WEST PERIMETER SPACE - STORY TOP,SizingPeriod: TUCSON INTERNATIONAL AP ANN HTG 99.6% CONDNS DB 1,0.1153174810,0.5298405881,Pass,Pass,4.7908587523E-002,0.2206498257,Pass,Pass
Environment,TUCSON INTERNATIONAL AP ANN CLG .4% CONDNS DB=>MWB 1 HVAC Sizing Pass 1,SizingPeriod:DesignDay,07/21,07/21,SummerDesignDay,1,N/A,N/A,N/A,N/A,N/A,N/A,Clark and Allen
Environment:Daylight Saving,No,SizingPeriod:DesignDay
Environment,TUCSON INTERNATIONAL AP ANN CLG .4% CONDNS WB=>MDB 1 HVAC Sizing Pass 1,SizingPeriod:DesignDay,07/21,07/21,SummerDesignDay,1,N/A,N/A,N/A,N/A,N/A,N/A,Clark and Allen
Environment:Daylight Saving,No,SizingPeriod:DesignDay
Environment,TUCSON INTERNATIONAL AP ANN HTG 99.6% CONDNS DB 1 HVAC Sizing Pass 1,SizingPeriod:DesignDay,12/21,12/21,WinterDesignDay,1,N/A,N/A,N/A,N/A,N/A,N/A,Clark and Allen
Environment:Daylight Saving,No,SizingPeriod:DesignDay
! <Program Control Information:Threads/Parallel Sims>, Threading Supported,Maximum Number of Threads, Env Set Threads (OMP_NUM_THREADS), EP Env Set Threads (EP_OMP_NUM_THREADS), IDF Set Threads, Number of Threads Used (Interior Radiant Exchange), Number Nominal Surfaces, Number Parallel Sims
Program Control:Threads/Parallel Sims, No,1, N/A, N/A, N/A, N/A, N/A, N/A
End of Data
