Program Version,EnergyPlus, Version 9.4.0-998c4b761e, YMD=2022.04.20 08:19
! <Version>, Version ID
 Version, 9.4
! <Timesteps per Hour>, #TimeSteps, Minutes per TimeStep {minutes}
 Timesteps per Hour,  4, 15
! <System Convergence Limits>, Minimum System TimeStep {minutes}, Max HVAC Iterations, Minimum Plant Iterations, Maximum Plant Iterations
 System Convergence Limits, 1, 20, 2, 8
! <Simulation Control>, Do Zone Sizing, Do System Sizing, Do Plant Sizing, Do Design Days, Do Weather Simulation, Do HVAC Sizing Simulation
 Simulation Control, Yes, Yes, Yes, No, Yes, Yes
! <Performance Precision Tradeoffs>, Use Coil Direct Simulation, Zone Radiant Exchange Algorithm, Override Mode, Number of Timestep In Hour, Force Euler Method, Minimum Number of Warmup Days, Force Suppress All Begin Environment Resets, Minimum System Timestep, MaxZoneTempDiff, MaxAllowedDelTemp
 Performance Precision Tradeoffs, No, ScriptF, Normal, 4, No, 1, No, 1.0, 0.300, 2.0000E-003
! <Output Reporting Tolerances>, Tolerance for Time Heating Setpoint Not Met, Tolerance for Zone Cooling Setpoint Not Met Time
 Output Reporting Tolerances, 0.556, 0.556, 
! <Site:GroundTemperature:BuildingSurface>,Jan{C},Feb{C},Mar{C},Apr{C},May{C},Jun{C},Jul{C},Aug{C},Sep{C},Oct{C},Nov{C},Dec{C}
 Site:GroundTemperature:BuildingSurface,  18.00,  18.00,  18.00,  18.00,  18.00,  18.00,  18.00,  18.00,  18.00,  18.00,  18.00,  18.00
! <Site:GroundTemperature:FCfactorMethod>,Jan{C},Feb{C},Mar{C},Apr{C},May{C},Jun{C},Jul{C},Aug{C},Sep{C},Oct{C},Nov{C},Dec{C}
 Site:GroundTemperature:FCfactorMethod,  20.90,  15.40,  11.90,  14.80,  12.70,  15.40,  23.30,  26.30,  31.20,  30.40,  29.80,  27.80
! <Site:GroundTemperature:Shallow>,Jan{C},Feb{C},Mar{C},Apr{C},May{C},Jun{C},Jul{C},Aug{C},Sep{C},Oct{C},Nov{C},Dec{C}
 Site:GroundTemperature:Shallow,  13.00,  13.00,  13.00,  13.00,  13.00,  13.00,  13.00,  13.00,  13.00,  13.00,  13.00,  13.00
! <Site:GroundTemperature:Deep>,Jan{C},Feb{C},Mar{C},Apr{C},May{C},Jun{C},Jul{C},Aug{C},Sep{C},Oct{C},Nov{C},Dec{C}
 Site:GroundTemperature:Deep,  16.00,  16.00,  16.00,  16.00,  16.00,  16.00,  16.00,  16.00,  16.00,  16.00,  16.00,  16.00
! <Site:GroundReflectance>,Jan{dimensionless},Feb{dimensionless},Mar{dimensionless},Apr{dimensionless},May{dimensionless},Jun{dimensionless},Jul{dimensionless},Aug{dimensionless},Sep{dimensionless},Oct{dimensionless},Nov{dimensionless},Dec{dimensionless}
 Site:GroundReflectance,  0.20,  0.20,  0.20,  0.20,  0.20,  0.20,  0.20,  0.20,  0.20,  0.20,  0.20,  0.20
! <Site:GroundReflectance:SnowModifier>, Normal, Daylighting {dimensionless}
 Site:GroundReflectance:SnowModifier,   1.000,   1.000
! <Site:GroundReflectance:Snow>,Jan{dimensionless},Feb{dimensionless},Mar{dimensionless},Apr{dimensionless},May{dimensionless},Jun{dimensionless},Jul{dimensionless},Aug{dimensionless},Sep{dimensionless},Oct{dimensionless},Nov{dimensionless},Dec{dimensionless}
 Site:GroundReflectance:Snow,  0.20,  0.20,  0.20,  0.20,  0.20,  0.20,  0.20,  0.20,  0.20,  0.20,  0.20,  0.20
! <Site:GroundReflectance:Snow:Daylighting>,Jan{dimensionless},Feb{dimensionless},Mar{dimensionless},Apr{dimensionless},May{dimensionless},Jun{dimensionless},Jul{dimensionless},Aug{dimensionless},Sep{dimensionless},Oct{dimensionless},Nov{dimensionless},Dec{dimensionless}
 Site:GroundReflectance:Snow:Daylighting,  0.20,  0.20,  0.20,  0.20,  0.20,  0.20,  0.20,  0.20,  0.20,  0.20,  0.20,  0.20
! <Environment:Weather Station>,Wind Sensor Height Above Ground {m},Wind Speed Profile Exponent {},Wind Speed Profile Boundary Layer Thickness {m},Air Temperature Sensor Height Above Ground {m},Wind Speed Modifier Coefficient-Internal,Temperature Modifier Coefficient-Internal
Environment:Weather Station,10.000,0.140,270.000,1.500,1.586,9.750E-003
! <Site:Location>, Location Name, Latitude {N+/S- Deg}, Longitude {E+/W- Deg},  Time Zone Number {GMT+/-}, Elevation {m},  Standard Pressure at Elevation {Pa}, Standard RhoAir at Elevation
Site:Location,Tucson International Ap AZ USA TMY3 WMO#=722740,32.13,-110.95,-7.00,777.00,92332,1.0974
! <Site Water Mains Temperature Information>,Calculation Method{},Water Mains Temperature Schedule Name{},Annual Average Outdoor Air Temperature{C},Maximum Difference In Monthly Average Outdoor Air Temperatures{deltaC},Fixed Default Water Mains Temperature{C}
Site Water Mains Temperature Information,Correlation,NA,20.39,20.10,NA
! <Building Information>, Building Name,North Axis {deg},Terrain,  Loads Convergence Tolerance Value,Temperature Convergence Tolerance Value,  Solar Distribution,Maximum Number of Warmup Days,Minimum Number of Warmup Days
 Building Information,90.1-2010|MediumOffice,0.000,City,4.00000E-002,0.40000,FullExterior,25,1
! <Inside Convection Algorithm>, Algorithm {Simple | TARP | CeilingDiffuser | AdaptiveConvectionAlgorithm}
Inside Convection Algorithm,TARP
! <Outside Convection Algorithm>, Algorithm {SimpleCombined | TARP | MoWitt | DOE-2 | AdaptiveConvectionAlgorithm}
Outside Convection Algorithm,DOE-2
! <Sky Radiance Distribution>, Value {Anisotropic}
Sky Radiance Distribution,Anisotropic
! <Zone Air Solution Algorithm>, Value {ThirdOrderBackwardDifference | AnalyticalSolution | EulerMethod}
 Zone Air Solution Algorithm, ThirdOrderBackwardDifference
! <Zone Air Carbon Dioxide Balance Simulation>, Simulation {Yes/No}, Carbon Dioxide Concentration
 Zone Air Carbon Dioxide Balance Simulation, No,N/A
! <Zone Air Generic Contaminant Balance Simulation>, Simulation {Yes/No}, Generic Contaminant Concentration
 Zone Air Generic Contaminant Balance Simulation, No,N/A
! <Zone Air Mass Flow Balance Simulation>, Enforce Mass Balance, Adjust Zone Mixing, Adjust Zone Infiltration {AddInfiltration | AdjustInfiltration | None}, Infiltration Zones {MixingSourceZonesOnly | AllZones}
 Zone Air Mass Flow Balance Simulation, No,N/A,N/A,N/A
! <HVACSystemRootFindingAlgorithm>, Value {RegulaFalsi | Bisection | BisectionThenRegulaFalsi | RegulaFalsiThenBisection}
 HVACSystemRootFindingAlgorithm, RegulaFalsi
! <Environment:Site Atmospheric Variation>,Wind Speed Profile Exponent {},Wind Speed Profile Boundary Layer Thickness {m},Air Temperature Gradient Coefficient {K/m}
Environment:Site Atmospheric Variation,0.330,460.000,6.500000E-003
! <Surface Geometry>,Starting Corner,Vertex Input Direction,Coordinate System,Daylight Reference Point Coordinate System,Rectangular (Simple) Surface Coordinate System
 Surface Geometry,UpperLeftCorner,Counterclockwise,RelativeCoordinateSystem,RelativeCoordinateSystem,RelativeToZoneOrigin
! <Surface Heat Transfer Algorithm>, Value {CTF - ConductionTransferFunction | EMPD - MoisturePenetrationDepthConductionTransferFunction | CondFD - ConductionFiniteDifference | HAMT - CombinedHeatAndMoistureFiniteElement} - Description,Inside Surface Max Temperature Limit{C}, Surface Convection Coefficient Lower Limit {W/m2-K}, Surface Convection Coefficient Upper Limit {W/m2-K}
Surface Heat Transfer Algorithm, CTF - ConductionTransferFunction,200,0.10,1000.0
! <Shading Summary>, Number of Fixed Detached Shades, Number of Building Detached Shades, Number of Attached Shades
 Shading Summary,0,0,0
! <Zone Summary>, Number of Zones, Number of Zone Surfaces, Number of SubSurfaces
 Zone Summary,15,117,12
! <Zone Information>,Zone Name,North Axis {deg},Origin X-Coordinate {m},Origin Y-Coordinate {m},Origin Z-Coordinate {m},Centroid X-Coordinate {m},Centroid Y-Coordinate {m},Centroid Z-Coordinate {m},Type,Zone Multiplier,Zone List Multiplier,Minimum X {m},Maximum X {m},Minimum Y {m},Maximum Y {m},Minimum Z {m},Maximum Z {m},Ceiling Height {m},Volume {m3},Zone Inside Convection Algorithm {Simple-Detailed-CeilingDiffuser-TrombeWall},Zone Outside Convection Algorithm {Simple-Detailed-Tarp-MoWitt-DOE-2-BLAST}, Floor Area {m2},Exterior Gross Wall Area {m2},Exterior Net Wall Area {m2},Exterior Window Area {m2}, Number of Surfaces, Number of SubSurfaces, Number of Shading SubSurfaces,  Part of Total Building Area
 Zone Information, ZONE CORE SPACE - STORY GROUND,0.0,-37.16,-23.25,0.00,-2.42E-014,1.91E-014,1.98,1,1,1,-37.16,37.16,-23.25,23.25,0.00,3.96,3.96,13696.58,TARP,DOE-2,3456.64,0.00,0.00,0.00,6,0,0,Yes
 Zone Information, ZONE CORE SPACE - STORY MID,0.0,-37.16,-23.25,37.64,-2.41E-014,1.93E-014,39.62,1,18,1,-37.16,37.16,-23.25,23.25,37.64,41.61,3.96,13696.58,TARP,DOE-2,3456.64,0.00,0.00,0.00,6,0,0,Yes
 Zone Information, ZONE CORE SPACE - STORY TOP,0.0,-37.16,-23.25,75.29,-2.41E-014,1.91E-014,77.27,1,1,1,-37.16,37.16,-23.25,23.25,75.29,79.25,3.96,13696.58,TARP,DOE-2,3456.64,0.00,0.00,0.00,6,0,0,Yes
 Zone Information, ZONE EAST PERIMETER SPACE - STORY GROUND,0.0,41.74,27.82,0.00,39.57,-1.99E-014,1.98,1,1,1,37.16,41.74,-27.82,27.82,0.00,3.96,3.96,925.31,TARP,DOE-2,233.52,220.50,66.15,154.35,6,1,0,Yes
 Zone Information, ZONE EAST PERIMETER SPACE - STORY MID,0.0,41.74,27.82,37.64,39.57,-1.89E-014,39.62,1,18,1,37.16,41.74,-27.82,27.82,37.64,41.61,3.96,925.31,TARP,DOE-2,233.52,220.50,66.15,154.35,6,1,0,Yes
 Zone Information, ZONE EAST PERIMETER SPACE - STORY TOP,0.0,41.74,27.82,75.29,39.57,-2.26E-014,77.27,1,1,1,37.16,41.74,-27.82,27.82,75.29,79.25,3.96,925.31,TARP,DOE-2,233.52,220.50,66.15,154.35,6,1,0,Yes
 Zone Information, ZONE NORTH PERIMETER SPACE - STORY GROUND,0.0,-41.74,27.82,0.00,-1.88E-014,25.62,1.98,1,1,1,-41.74,41.74,23.25,27.82,0.00,3.96,3.96,1429.38,TARP,DOE-2,360.73,330.75,99.23,231.53,6,1,0,Yes
 Zone Information, ZONE NORTH PERIMETER SPACE - STORY MID,0.0,-41.74,27.82,37.64,-1.45E-014,25.62,39.62,1,18,1,-41.74,41.74,23.25,27.82,37.64,41.61,3.96,1429.38,TARP,DOE-2,360.73,330.75,99.23,231.53,6,1,0,Yes
 Zone Information, ZONE NORTH PERIMETER SPACE - STORY TOP,0.0,-41.74,27.82,75.29,-1.83E-014,25.62,77.27,1,1,1,-41.74,41.74,23.25,27.82,75.29,79.25,3.96,1429.38,TARP,DOE-2,360.73,330.75,99.23,231.53,6,1,0,Yes
 Zone Information, ZONE SOUTH PERIMETER SPACE - STORY GROUND,0.0,41.74,-27.82,0.00,1.88E-014,-25.62,1.98,1,1,1,-41.74,41.74,-27.82,-23.25,0.00,3.96,3.96,1429.38,TARP,DOE-2,360.73,330.75,99.23,231.53,6,1,0,Yes
 Zone Information, ZONE SOUTH PERIMETER SPACE - STORY MID,0.0,41.74,-27.82,37.64,1.45E-014,-25.62,39.62,1,18,1,-41.74,41.74,-27.82,-23.25,37.64,41.61,3.96,1429.38,TARP,DOE-2,360.73,330.75,99.23,231.53,6,1,0,Yes
 Zone Information, ZONE SOUTH PERIMETER SPACE - STORY TOP,0.0,41.74,-27.82,75.29,1.83E-014,-25.62,77.27,1,1,1,-41.74,41.74,-27.82,-23.25,75.29,79.25,3.96,1429.38,TARP,DOE-2,360.73,330.75,99.23,231.53,6,1,0,Yes
 Zone Information, ZONE WEST PERIMETER SPACE - STORY GROUND,0.0,-41.74,-27.82,0.00,-39.57,1.99E-014,1.98,1,1,1,-41.74,-37.16,-27.82,27.82,0.00,3.96,3.96,925.31,TARP,DOE-2,233.52,220.50,66.15,154.35,6,1,0,Yes
 Zone Information, ZONE WEST PERIMETER SPACE - STORY MID,0.0,-41.74,-27.82,37.64,-39.57,1.89E-014,39.62,1,18,1,-41.74,-37.16,-27.82,27.82,37.64,41.61,3.96,925.31,TARP,DOE-2,233.52,220.50,66.15,154.35,6,1,0,Yes
 Zone Information, ZONE WEST PERIMETER SPACE - STORY TOP,0.0,-41.74,-27.82,75.29,-39.57,2.26E-014,77.27,1,1,1,-41.74,-37.16,-27.82,27.82,75.29,79.25,3.96,925.31,TARP,DOE-2,233.52,220.50,66.15,154.35,6,1,0,Yes
! <Zone Internal Gains Nominal>,Zone Name, Floor Area {m2},# Occupants,Area per Occupant {m2/person},Occupant per Area {person/m2},Interior Lighting {W/m2},Electric Load {W/m2},Gas Load {W/m2},Other Load {W/m2},Hot Water Eq {W/m2},Steam Equipment {W/m2},Sum Loads per Area {W/m2},Outdoor Controlled Baseboard Heat
 Zone Internal Gains Nominal, ZONE CORE SPACE - STORY GROUND,3456.64,186.0,18.581,5.382E-002,9.688,156.173,0.000,0.000,0.000,0.000,165.860,No
 Zone Internal Gains Nominal, ZONE CORE SPACE - STORY MID,3456.64,186.0,18.581,5.382E-002,9.688,8.073,0.000,0.000,0.000,0.000,17.760,No
 Zone Internal Gains Nominal, ZONE CORE SPACE - STORY TOP,3456.64,186.0,18.581,5.382E-002,9.688,8.073,0.000,0.000,0.000,0.000,17.760,No
 Zone Internal Gains Nominal, ZONE EAST PERIMETER SPACE - STORY GROUND,233.52,12.6,18.581,5.382E-002,9.688,8.073,0.000,0.000,0.000,0.000,17.760,No
 Zone Internal Gains Nominal, ZONE EAST PERIMETER SPACE - STORY MID,233.52,12.6,18.581,5.382E-002,9.688,8.073,0.000,0.000,0.000,0.000,17.760,No
 Zone Internal Gains Nominal, ZONE EAST PERIMETER SPACE - STORY TOP,233.52,12.6,18.581,5.382E-002,9.688,8.073,0.000,0.000,0.000,0.000,17.760,No
 Zone Internal Gains Nominal, ZONE NORTH PERIMETER SPACE - STORY GROUND,360.73,19.4,18.581,5.382E-002,9.688,8.073,0.000,0.000,0.000,0.000,17.760,No
 Zone Internal Gains Nominal, ZONE NORTH PERIMETER SPACE - STORY MID,360.73,19.4,18.581,5.382E-002,9.688,8.073,0.000,0.000,0.000,0.000,17.760,No
 Zone Internal Gains Nominal, ZONE NORTH PERIMETER SPACE - STORY TOP,360.73,19.4,18.581,5.382E-002,9.688,8.073,0.000,0.000,0.000,0.000,17.760,No
 Zone Internal Gains Nominal, ZONE SOUTH PERIMETER SPACE - STORY GROUND,360.73,19.4,18.581,5.382E-002,9.688,8.073,0.000,0.000,0.000,0.000,17.760,No
 Zone Internal Gains Nominal, ZONE SOUTH PERIMETER SPACE - STORY MID,360.73,19.4,18.581,5.382E-002,9.688,8.073,0.000,0.000,0.000,0.000,17.760,No
 Zone Internal Gains Nominal, ZONE SOUTH PERIMETER SPACE - STORY TOP,360.73,19.4,18.581,5.382E-002,9.688,8.073,0.000,0.000,0.000,0.000,17.760,No
 Zone Internal Gains Nominal, ZONE WEST PERIMETER SPACE - STORY GROUND,233.52,12.6,18.581,5.382E-002,9.688,8.073,0.000,0.000,0.000,0.000,17.760,No
 Zone Internal Gains Nominal, ZONE WEST PERIMETER SPACE - STORY MID,233.52,12.6,18.581,5.382E-002,9.688,8.073,0.000,0.000,0.000,0.000,17.760,No
 Zone Internal Gains Nominal, ZONE WEST PERIMETER SPACE - STORY TOP,233.52,12.6,18.581,5.382E-002,9.688,8.073,0.000,0.000,0.000,0.000,17.760,No
! <People Internal Gains Nominal>,Name,Schedule Name,Zone Name,Zone Floor Area {m2},# Zone Occupants,Number of People {},People/Floor Area {person/m2},Floor Area per person {m2/person},Fraction Radiant,Fraction Convected,Sensible Fraction Calculation,Activity level,ASHRAE 55 Warnings,Carbon Dioxide Generation Rate,Nominal Minimum Number of People,Nominal Maximum Number of People
 People Internal Gains Nominal, ZONE CORE SPACE - STORY GROUND OFFICE WHOLEBUILDING - MD OFFICE PEOPLE,OFFICEMEDIUM BLDG_OCC_SCH,ZONE CORE SPACE - STORY GROUND,3456.64,186.0,186.0,5.382E-002,18.581,0.300,0.700,AutoCalculate,OFFICEMEDIUM ACTIVITY_SCH,No,3.8200E-008,0,186
 People Internal Gains Nominal, ZONE CORE SPACE - STORY MID OFFICE WHOLEBUILDING - MD OFFICE PEOPLE,OFFICEMEDIUM BLDG_OCC_SCH,ZONE CORE SPACE - STORY MID,3456.64,186.0,186.0,5.382E-002,18.581,0.300,0.700,AutoCalculate,OFFICEMEDIUM ACTIVITY_SCH,No,3.8200E-008,0,186
 People Internal Gains Nominal, ZONE CORE SPACE - STORY TOP OFFICE WHOLEBUILDING - MD OFFICE PEOPLE,OFFICEMEDIUM BLDG_OCC_SCH,ZONE CORE SPACE - STORY TOP,3456.64,186.0,186.0,5.382E-002,18.581,0.300,0.700,AutoCalculate,OFFICEMEDIUM ACTIVITY_SCH,No,3.8200E-008,0,186
 People Internal Gains Nominal, ZONE EAST PERIMETER SPACE - STORY GROUND OFFICE WHOLEBUILDING - MD OFFICE PEOPLE,OFFICEMEDIUM BLDG_OCC_SCH,ZONE EAST PERIMETER SPACE - STORY GROUND,233.52,12.6,12.6,5.382E-002,18.581,0.300,0.700,AutoCalculate,OFFICEMEDIUM ACTIVITY_SCH,No,3.8200E-008,0,13
 People Internal Gains Nominal, ZONE EAST PERIMETER SPACE - STORY MID OFFICE WHOLEBUILDING - MD OFFICE PEOPLE,OFFICEMEDIUM BLDG_OCC_SCH,ZONE EAST PERIMETER SPACE - STORY MID,233.52,12.6,12.6,5.382E-002,18.581,0.300,0.700,AutoCalculate,OFFICEMEDIUM ACTIVITY_SCH,No,3.8200E-008,0,13
 People Internal Gains Nominal, ZONE EAST PERIMETER SPACE - STORY TOP OFFICE WHOLEBUILDING - MD OFFICE PEOPLE,OFFICEMEDIUM BLDG_OCC_SCH,ZONE EAST PERIMETER SPACE - STORY TOP,233.52,12.6,12.6,5.382E-002,18.581,0.300,0.700,AutoCalculate,OFFICEMEDIUM ACTIVITY_SCH,No,3.8200E-008,0,13
 People Internal Gains Nominal, ZONE NORTH PERIMETER SPACE - STORY GROUND OFFICE WHOLEBUILDING - MD OFFICE PEOPLE,OFFICEMEDIUM BLDG_OCC_SCH,ZONE NORTH PERIMETER SPACE - STORY GROUND,360.73,19.4,19.4,5.382E-002,18.581,0.300,0.700,AutoCalculate,OFFICEMEDIUM ACTIVITY_SCH,No,3.8200E-008,0,19
 People Internal Gains Nominal, ZONE NORTH PERIMETER SPACE - STORY MID OFFICE WHOLEBUILDING - MD OFFICE PEOPLE,OFFICEMEDIUM BLDG_OCC_SCH,ZONE NORTH PERIMETER SPACE - STORY MID,360.73,19.4,19.4,5.382E-002,18.581,0.300,0.700,AutoCalculate,OFFICEMEDIUM ACTIVITY_SCH,No,3.8200E-008,0,19
 People Internal Gains Nominal, ZONE NORTH PERIMETER SPACE - STORY TOP OFFICE WHOLEBUILDING - MD OFFICE PEOPLE,OFFICEMEDIUM BLDG_OCC_SCH,ZONE NORTH PERIMETER SPACE - STORY TOP,360.73,19.4,19.4,5.382E-002,18.581,0.300,0.700,AutoCalculate,OFFICEMEDIUM ACTIVITY_SCH,No,3.8200E-008,0,19
 People Internal Gains Nominal, ZONE SOUTH PERIMETER SPACE - STORY GROUND OFFICE WHOLEBUILDING - MD OFFICE PEOPLE,OFFICEMEDIUM BLDG_OCC_SCH,ZONE SOUTH PERIMETER SPACE - STORY GROUND,360.73,19.4,19.4,5.382E-002,18.581,0.300,0.700,AutoCalculate,OFFICEMEDIUM ACTIVITY_SCH,No,3.8200E-008,0,19
 People Internal Gains Nominal, ZONE SOUTH PERIMETER SPACE - STORY MID OFFICE WHOLEBUILDING - MD OFFICE PEOPLE,OFFICEMEDIUM BLDG_OCC_SCH,ZONE SOUTH PERIMETER SPACE - STORY MID,360.73,19.4,19.4,5.382E-002,18.581,0.300,0.700,AutoCalculate,OFFICEMEDIUM ACTIVITY_SCH,No,3.8200E-008,0,19
 People Internal Gains Nominal, ZONE SOUTH PERIMETER SPACE - STORY TOP OFFICE WHOLEBUILDING - MD OFFICE PEOPLE,OFFICEMEDIUM BLDG_OCC_SCH,ZONE SOUTH PERIMETER SPACE - STORY TOP,360.73,19.4,19.4,5.382E-002,18.581,0.300,0.700,AutoCalculate,OFFICEMEDIUM ACTIVITY_SCH,No,3.8200E-008,0,19
 People Internal Gains Nominal, ZONE WEST PERIMETER SPACE - STORY GROUND OFFICE WHOLEBUILDING - MD OFFICE PEOPLE,OFFICEMEDIUM BLDG_OCC_SCH,ZONE WEST PERIMETER SPACE - STORY GROUND,233.52,12.6,12.6,5.382E-002,18.581,0.300,0.700,AutoCalculate,OFFICEMEDIUM ACTIVITY_SCH,No,3.8200E-008,0,13
 People Internal Gains Nominal, ZONE WEST PERIMETER SPACE - STORY MID OFFICE WHOLEBUILDING - MD OFFICE PEOPLE,OFFICEMEDIUM BLDG_OCC_SCH,ZONE WEST PERIMETER SPACE - STORY MID,233.52,12.6,12.6,5.382E-002,18.581,0.300,0.700,AutoCalculate,OFFICEMEDIUM ACTIVITY_SCH,No,3.8200E-008,0,13
 People Internal Gains Nominal, ZONE WEST PERIMETER SPACE - STORY TOP OFFICE WHOLEBUILDING - MD OFFICE PEOPLE,OFFICEMEDIUM BLDG_OCC_SCH,ZONE WEST PERIMETER SPACE - STORY TOP,233.52,12.6,12.6,5.382E-002,18.581,0.300,0.700,AutoCalculate,OFFICEMEDIUM ACTIVITY_SCH,No,3.8200E-008,0,13
! <Lights Internal Gains Nominal>,Name,Schedule Name,Zone Name,Zone Floor Area {m2},# Zone Occupants,Lighting Level {W},Lights/Floor Area {W/m2},Lights per person {W/person},Fraction Return Air,Fraction Radiant,Fraction Short Wave,Fraction Convected,Fraction Replaceable,End-Use Category,Nominal Minimum Lighting Level {W},Nominal Maximum Lighting Level {W}
 Lights Internal Gains Nominal, ZONE CORE SPACE - STORY GROUND OFFICE WHOLEBUILDING - MD OFFICE LIGHTS,OFFICEMEDIUM BLDG_LIGHT_SCH_2010,ZONE CORE SPACE - STORY GROUND,3456.64,186.0,33486.242,9.688,180.000,0.000,0.700,0.200,0.100,1.000,General,0.000,33486.242
 Lights Internal Gains Nominal, ZONE CORE SPACE - STORY MID OFFICE WHOLEBUILDING - MD OFFICE LIGHTS,OFFICEMEDIUM BLDG_LIGHT_SCH_2010,ZONE CORE SPACE - STORY MID,3456.64,186.0,33486.242,9.688,180.000,0.000,0.700,0.200,0.100,1.000,General,0.000,33486.242
 Lights Internal Gains Nominal, ZONE CORE SPACE - STORY TOP OFFICE WHOLEBUILDING - MD OFFICE LIGHTS,OFFICEMEDIUM BLDG_LIGHT_SCH_2010,ZONE CORE SPACE - STORY TOP,3456.64,186.0,33486.242,9.688,180.000,0.000,0.700,0.200,0.100,1.000,General,0.000,33486.242
 Lights Internal Gains Nominal, ZONE EAST PERIMETER SPACE - STORY GROUND OFFICE WHOLEBUILDING - MD OFFICE LIGHTS,OFFICEMEDIUM BLDG_LIGHT_SCH_2010,ZONE EAST PERIMETER SPACE - STORY GROUND,233.52,12.6,2262.252,9.688,180.000,0.000,0.700,0.200,0.100,1.000,General,0.000,2262.252
 Lights Internal Gains Nominal, ZONE EAST PERIMETER SPACE - STORY MID OFFICE WHOLEBUILDING - MD OFFICE LIGHTS,OFFICEMEDIUM BLDG_LIGHT_SCH_2010,ZONE EAST PERIMETER SPACE - STORY MID,233.52,12.6,2262.252,9.688,180.000,0.000,0.700,0.200,0.100,1.000,General,0.000,2262.252
 Lights Internal Gains Nominal, ZONE EAST PERIMETER SPACE - STORY TOP OFFICE WHOLEBUILDING - MD OFFICE LIGHTS,OFFICEMEDIUM BLDG_LIGHT_SCH_2010,ZONE EAST PERIMETER SPACE - STORY TOP,233.52,12.6,2262.252,9.688,180.000,0.000,0.700,0.200,0.100,1.000,General,0.000,2262.252
 Lights Internal Gains Nominal, ZONE NORTH PERIMETER SPACE - STORY GROUND OFFICE WHOLEBUILDING - MD OFFICE LIGHTS,OFFICEMEDIUM BLDG_LIGHT_SCH_2010,ZONE NORTH PERIMETER SPACE - STORY GROUND,360.73,19.4,3494.627,9.688,180.000,0.000,0.700,0.200,0.100,1.000,General,0.000,3494.627
 Lights Internal Gains Nominal, ZONE NORTH PERIMETER SPACE - STORY MID OFFICE WHOLEBUILDING - MD OFFICE LIGHTS,OFFICEMEDIUM BLDG_LIGHT_SCH_2010,ZONE NORTH PERIMETER SPACE - STORY MID,360.73,19.4,3494.627,9.688,180.000,0.000,0.700,0.200,0.100,1.000,General,0.000,3494.627
 Lights Internal Gains Nominal, ZONE NORTH PERIMETER SPACE - STORY TOP OFFICE WHOLEBUILDING - MD OFFICE LIGHTS,OFFICEMEDIUM BLDG_LIGHT_SCH_2010,ZONE NORTH PERIMETER SPACE - STORY TOP,360.73,19.4,3494.627,9.688,180.000,0.000,0.700,0.200,0.100,1.000,General,0.000,3494.627
 Lights Internal Gains Nominal, ZONE SOUTH PERIMETER SPACE - STORY GROUND OFFICE WHOLEBUILDING - MD OFFICE LIGHTS,OFFICEMEDIUM BLDG_LIGHT_SCH_2010,ZONE SOUTH PERIMETER SPACE - STORY GROUND,360.73,19.4,3494.627,9.688,180.000,0.000,0.700,0.200,0.100,1.000,General,0.000,3494.627
 Lights Internal Gains Nominal, ZONE SOUTH PERIMETER SPACE - STORY MID OFFICE WHOLEBUILDING - MD OFFICE LIGHTS,OFFICEMEDIUM BLDG_LIGHT_SCH_2010,ZONE SOUTH PERIMETER SPACE - STORY MID,360.73,19.4,3494.627,9.688,180.000,0.000,0.700,0.200,0.100,1.000,General,0.000,3494.627
 Lights Internal Gains Nominal, ZONE SOUTH PERIMETER SPACE - STORY TOP OFFICE WHOLEBUILDING - MD OFFICE LIGHTS,OFFICEMEDIUM BLDG_LIGHT_SCH_2010,ZONE SOUTH PERIMETER SPACE - STORY TOP,360.73,19.4,3494.627,9.688,180.000,0.000,0.700,0.200,0.100,1.000,General,0.000,3494.627
 Lights Internal Gains Nominal, ZONE WEST PERIMETER SPACE - STORY GROUND OFFICE WHOLEBUILDING - MD OFFICE LIGHTS,OFFICEMEDIUM BLDG_LIGHT_SCH_2010,ZONE WEST PERIMETER SPACE - STORY GROUND,233.52,12.6,2262.252,9.688,180.000,0.000,0.700,0.200,0.100,1.000,General,0.000,2262.252
 Lights Internal Gains Nominal, ZONE WEST PERIMETER SPACE - STORY MID OFFICE WHOLEBUILDING - MD OFFICE LIGHTS,OFFICEMEDIUM BLDG_LIGHT_SCH_2010,ZONE WEST PERIMETER SPACE - STORY MID,233.52,12.6,2262.252,9.688,180.000,0.000,0.700,0.200,0.100,1.000,General,0.000,2262.252
 Lights Internal Gains Nominal, ZONE WEST PERIMETER SPACE - STORY TOP OFFICE WHOLEBUILDING - MD OFFICE LIGHTS,OFFICEMEDIUM BLDG_LIGHT_SCH_2010,ZONE WEST PERIMETER SPACE - STORY TOP,233.52,12.6,2262.252,9.688,180.000,0.000,0.700,0.200,0.100,1.000,General,0.000,2262.252
! <ElectricEquipment Internal Gains Nominal>,Name,Schedule Name,Zone Name,Zone Floor Area {m2},# Zone Occupants,Equipment Level {W},Equipment/Floor Area {W/m2},Equipment per person {W/person},Fraction Latent,Fraction Radiant,Fraction Lost,Fraction Convected,End-Use SubCategory,Nominal Minimum Equipment Level {W},Nominal Maximum Equipment Level {W}
 ElectricEquipment Internal Gains Nominal, 25 ELEVATOR FANS,ELEVATOR SCHEDULE 3,ZONE CORE SPACE - STORY GROUND,3456.64,186.0,1868.130,0.540,10.042,0.000,0.500,0.000,0.500,Elevators,0.000,1868.130
 ElectricEquipment Internal Gains Nominal, 25 ELEVATOR LIFT MOTORS,ELEVATOR SCHEDULE 1,ZONE CORE SPACE - STORY GROUND,3456.64,186.0,509250.000,147.325,2737.393,0.000,0.000,1.000,0.000,Elevators,0.000,509250.000
 ElectricEquipment Internal Gains Nominal, 25 ELEVATOR LIGHTS,ELEVATOR SCHEDULE 2,ZONE CORE SPACE - STORY GROUND,3456.64,186.0,808.714,0.234,4.347,0.000,0.500,0.000,0.500,Elevators,0.000,808.714
 ElectricEquipment Internal Gains Nominal, ZONE CORE SPACE - STORY GROUND OFFICE WHOLEBUILDING - MD OFFICE ELEC EQUIP,OFFICEMEDIUM BLDG_EQUIP_SCH_2010,ZONE CORE SPACE - STORY GROUND,3456.64,186.0,27905.202,8.073,150.000,0.000,0.500,0.000,0.500,General,0.000,27905.202
 ElectricEquipment Internal Gains Nominal, ZONE CORE SPACE - STORY MID OFFICE WHOLEBUILDING - MD OFFICE ELEC EQUIP,OFFICEMEDIUM BLDG_EQUIP_SCH_2010,ZONE CORE SPACE - STORY MID,3456.64,186.0,27905.202,8.073,150.000,0.000,0.500,0.000,0.500,General,0.000,27905.202
 ElectricEquipment Internal Gains Nominal, ZONE CORE SPACE - STORY TOP OFFICE WHOLEBUILDING - MD OFFICE ELEC EQUIP,OFFICEMEDIUM BLDG_EQUIP_SCH_2010,ZONE CORE SPACE - STORY TOP,3456.64,186.0,27905.202,8.073,150.000,0.000,0.500,0.000,0.500,General,0.000,27905.202
 ElectricEquipment Internal Gains Nominal, ZONE EAST PERIMETER SPACE - STORY GROUND OFFICE WHOLEBUILDING - MD OFFICE ELEC EQUIP,OFFICEMEDIUM BLDG_EQUIP_SCH_2010,ZONE EAST PERIMETER SPACE - STORY GROUND,233.52,12.6,1885.210,8.073,150.000,0.000,0.500,0.000,0.500,General,0.000,1885.210
 ElectricEquipment Internal Gains Nominal, ZONE EAST PERIMETER SPACE - STORY MID OFFICE WHOLEBUILDING - MD OFFICE ELEC EQUIP,OFFICEMEDIUM BLDG_EQUIP_SCH_2010,ZONE EAST PERIMETER SPACE - STORY MID,233.52,12.6,1885.210,8.073,150.000,0.000,0.500,0.000,0.500,General,0.000,1885.210
 ElectricEquipment Internal Gains Nominal, ZONE EAST PERIMETER SPACE - STORY TOP OFFICE WHOLEBUILDING - MD OFFICE ELEC EQUIP,OFFICEMEDIUM BLDG_EQUIP_SCH_2010,ZONE EAST PERIMETER SPACE - STORY TOP,233.52,12.6,1885.210,8.073,150.000,0.000,0.500,0.000,0.500,General,0.000,1885.210
 ElectricEquipment Internal Gains Nominal, ZONE NORTH PERIMETER SPACE - STORY GROUND OFFICE WHOLEBUILDING - MD OFFICE ELEC EQUIP,OFFICEMEDIUM BLDG_EQUIP_SCH_2010,ZONE NORTH PERIMETER SPACE - STORY GROUND,360.73,19.4,2912.189,8.073,150.000,0.000,0.500,0.000,0.500,General,0.000,2912.189
 ElectricEquipment Internal Gains Nominal, ZONE NORTH PERIMETER SPACE - STORY MID OFFICE WHOLEBUILDING - MD OFFICE ELEC EQUIP,OFFICEMEDIUM BLDG_EQUIP_SCH_2010,ZONE NORTH PERIMETER SPACE - STORY MID,360.73,19.4,2912.189,8.073,150.000,0.000,0.500,0.000,0.500,General,0.000,2912.189
 ElectricEquipment Internal Gains Nominal, ZONE NORTH PERIMETER SPACE - STORY TOP OFFICE WHOLEBUILDING - MD OFFICE ELEC EQUIP,OFFICEMEDIUM BLDG_EQUIP_SCH_2010,ZONE NORTH PERIMETER SPACE - STORY TOP,360.73,19.4,2912.189,8.073,150.000,0.000,0.500,0.000,0.500,General,0.000,2912.189
 ElectricEquipment Internal Gains Nominal, ZONE SOUTH PERIMETER SPACE - STORY GROUND OFFICE WHOLEBUILDING - MD OFFICE ELEC EQUIP,OFFICEMEDIUM BLDG_EQUIP_SCH_2010,ZONE SOUTH PERIMETER SPACE - STORY GROUND,360.73,19.4,2912.189,8.073,150.000,0.000,0.500,0.000,0.500,General,0.000,2912.189
 ElectricEquipment Internal Gains Nominal, ZONE SOUTH PERIMETER SPACE - STORY MID OFFICE WHOLEBUILDING - MD OFFICE ELEC EQUIP,OFFICEMEDIUM BLDG_EQUIP_SCH_2010,ZONE SOUTH PERIMETER SPACE - STORY MID,360.73,19.4,2912.189,8.073,150.000,0.000,0.500,0.000,0.500,General,0.000,2912.189
 ElectricEquipment Internal Gains Nominal, ZONE SOUTH PERIMETER SPACE - STORY TOP OFFICE WHOLEBUILDING - MD OFFICE ELEC EQUIP,OFFICEMEDIUM BLDG_EQUIP_SCH_2010,ZONE SOUTH PERIMETER SPACE - STORY TOP,360.73,19.4,2912.189,8.073,150.000,0.000,0.500,0.000,0.500,General,0.000,2912.189
 ElectricEquipment Internal Gains Nominal, ZONE WEST PERIMETER SPACE - STORY GROUND OFFICE WHOLEBUILDING - MD OFFICE ELEC EQUIP,OFFICEMEDIUM BLDG_EQUIP_SCH_2010,ZONE WEST PERIMETER SPACE - STORY GROUND,233.52,12.6,1885.210,8.073,150.000,0.000,0.500,0.000,0.500,General,0.000,1885.210
 ElectricEquipment Internal Gains Nominal, ZONE WEST PERIMETER SPACE - STORY MID OFFICE WHOLEBUILDING - MD OFFICE ELEC EQUIP,OFFICEMEDIUM BLDG_EQUIP_SCH_2010,ZONE WEST PERIMETER SPACE - STORY MID,233.52,12.6,1885.210,8.073,150.000,0.000,0.500,0.000,0.500,General,0.000,1885.210
 ElectricEquipment Internal Gains Nominal, ZONE WEST PERIMETER SPACE - STORY TOP OFFICE WHOLEBUILDING - MD OFFICE ELEC EQUIP,OFFICEMEDIUM BLDG_EQUIP_SCH_2010,ZONE WEST PERIMETER SPACE - STORY TOP,233.52,12.6,1885.210,8.073,150.000,0.000,0.500,0.000,0.500,General,0.000,1885.210
! <Shadowing/Sun Position Calculations Annual Simulations>, Shading Calculation Method, Shading Calculation Update Frequency Method, Shading Calculation Update Frequency {days}, Maximum Figures in Shadow Overlap Calculations {}, Polygon Clipping Algorithm, Pixel Counting Resolution, Sky Diffuse Modeling Algorithm, Output External Shading Calculation Results, Disable Self-Shading Within Shading Zone Groups, Disable Self-Shading From Shading Zone Groups to Other Zones
Shadowing/Sun Position Calculations Annual Simulations,PolygonClipping,Periodic,20,15000,SutherlandHodgman,512,SimpleSkyDiffuseModeling,No,No,No
! <Zone/Window Adjacency Daylighting Counts>, Zone Name, Number of Exterior Windows, Number of Exterior Windows in Adjacent Zones
Zone/Window Adjacency Daylighting Counts, ZONE EAST PERIMETER SPACE - STORY GROUND,1,0
Zone/Window Adjacency Daylighting Counts, ZONE EAST PERIMETER SPACE - STORY MID,1,0
Zone/Window Adjacency Daylighting Counts, ZONE EAST PERIMETER SPACE - STORY TOP,1,0
Zone/Window Adjacency Daylighting Counts, ZONE NORTH PERIMETER SPACE - STORY GROUND,1,0
Zone/Window Adjacency Daylighting Counts, ZONE NORTH PERIMETER SPACE - STORY MID,1,0
Zone/Window Adjacency Daylighting Counts, ZONE NORTH PERIMETER SPACE - STORY TOP,1,0
Zone/Window Adjacency Daylighting Counts, ZONE SOUTH PERIMETER SPACE - STORY GROUND,1,0
Zone/Window Adjacency Daylighting Counts, ZONE SOUTH PERIMETER SPACE - STORY MID,1,0
Zone/Window Adjacency Daylighting Counts, ZONE SOUTH PERIMETER SPACE - STORY TOP,1,0
Zone/Window Adjacency Daylighting Counts, ZONE WEST PERIMETER SPACE - STORY GROUND,1,0
Zone/Window Adjacency Daylighting Counts, ZONE WEST PERIMETER SPACE - STORY MID,1,0
Zone/Window Adjacency Daylighting Counts, ZONE WEST PERIMETER SPACE - STORY TOP,1,0
! <Zone/Window Adjacency Daylighting Matrix>, Zone Name, Number of Adjacent Zones with Windows,Adjacent Zone Names - 1st 100 (max)
Zone/Window Adjacency Daylighting Matrix, ZONE EAST PERIMETER SPACE - STORY GROUND,0
Zone/Window Adjacency Daylighting Matrix, ZONE EAST PERIMETER SPACE - STORY MID,0
Zone/Window Adjacency Daylighting Matrix, ZONE EAST PERIMETER SPACE - STORY TOP,0
Zone/Window Adjacency Daylighting Matrix, ZONE NORTH PERIMETER SPACE - STORY GROUND,0
Zone/Window Adjacency Daylighting Matrix, ZONE NORTH PERIMETER SPACE - STORY MID,0
Zone/Window Adjacency Daylighting Matrix, ZONE NORTH PERIMETER SPACE - STORY TOP,0
Zone/Window Adjacency Daylighting Matrix, ZONE SOUTH PERIMETER SPACE - STORY GROUND,0
Zone/Window Adjacency Daylighting Matrix, ZONE SOUTH PERIMETER SPACE - STORY MID,0
Zone/Window Adjacency Daylighting Matrix, ZONE SOUTH PERIMETER SPACE - STORY TOP,0
Zone/Window Adjacency Daylighting Matrix, ZONE WEST PERIMETER SPACE - STORY GROUND,0
Zone/Window Adjacency Daylighting Matrix, ZONE WEST PERIMETER SPACE - STORY MID,0
Zone/Window Adjacency Daylighting Matrix, ZONE WEST PERIMETER SPACE - STORY TOP,0
! <Water Heater Information>,Type,Name,Volume {m3},Maximum Capacity {W},Standard Rated Recovery Efficiency, Standard Rated Energy Factor
! <ZoneInfiltration Airflow Stats Nominal>,Name,Schedule Name,Zone Name, Zone Floor Area {m2}, # Zone Occupants,Design Volume Flow Rate {m3/s},Volume Flow Rate/Floor Area {m3/s-m2},Volume Flow Rate/Exterior Surface Area {m3/s-m2},ACH - Air Changes per Hour,Equation A - Constant Term Coefficient {},Equation B - Temperature Term Coefficient {1/C},Equation C - Velocity Term Coefficient {s/m}, Equation D - Velocity Squared Term Coefficient {s2/m2}
 ZoneInfiltration Airflow Stats Nominal, EAST PERIMETER SPACE - STORY GROUND INFILTRATION,ALWAYS ON DISCRETE,ZONE EAST PERIMETER SPACE - STORY GROUND,233.52,12.6,0.126,5.378E-004,5.696E-004,0.489,0.000,0.000,0.224,0.000
 ZoneInfiltration Airflow Stats Nominal, EAST PERIMETER SPACE - STORY MID INFILTRATION,ALWAYS ON DISCRETE,ZONE EAST PERIMETER SPACE - STORY MID,233.52,12.6,0.126,5.378E-004,5.696E-004,0.489,0.000,0.000,0.224,0.000
 ZoneInfiltration Airflow Stats Nominal, EAST PERIMETER SPACE - STORY TOP INFILTRATION,ALWAYS ON DISCRETE,ZONE EAST PERIMETER SPACE - STORY TOP,233.52,12.6,0.126,5.378E-004,2.766E-004,0.489,0.000,0.000,0.224,0.000
 ZoneInfiltration Airflow Stats Nominal, NORTH PERIMETER SPACE - STORY GROUND INFILTRATION,ALWAYS ON DISCRETE,ZONE NORTH PERIMETER SPACE - STORY GROUND,360.73,19.4,0.188,5.222E-004,5.696E-004,0.474,0.000,0.000,0.224,0.000
 ZoneInfiltration Airflow Stats Nominal, NORTH PERIMETER SPACE - STORY MID INFILTRATION,ALWAYS ON DISCRETE,ZONE NORTH PERIMETER SPACE - STORY MID,360.73,19.4,0.188,5.222E-004,5.696E-004,0.474,0.000,0.000,0.224,0.000
 ZoneInfiltration Airflow Stats Nominal, NORTH PERIMETER SPACE - STORY TOP INFILTRATION,ALWAYS ON DISCRETE,ZONE NORTH PERIMETER SPACE - STORY TOP,360.73,19.4,0.188,5.222E-004,2.724E-004,0.474,0.000,0.000,0.224,0.000
 ZoneInfiltration Airflow Stats Nominal, SOUTH PERIMETER SPACE - STORY GROUND INFILTRATION,ALWAYS ON DISCRETE,ZONE SOUTH PERIMETER SPACE - STORY GROUND,360.73,19.4,0.188,5.222E-004,5.696E-004,0.474,0.000,0.000,0.224,0.000
 ZoneInfiltration Airflow Stats Nominal, SOUTH PERIMETER SPACE - STORY MID INFILTRATION,ALWAYS ON DISCRETE,ZONE SOUTH PERIMETER SPACE - STORY MID,360.73,19.4,0.188,5.222E-004,5.696E-004,0.474,0.000,0.000,0.224,0.000
 ZoneInfiltration Airflow Stats Nominal, SOUTH PERIMETER SPACE - STORY TOP INFILTRATION,ALWAYS ON DISCRETE,ZONE SOUTH PERIMETER SPACE - STORY TOP,360.73,19.4,0.188,5.222E-004,2.724E-004,0.474,0.000,0.000,0.224,0.000
 ZoneInfiltration Airflow Stats Nominal, WEST PERIMETER SPACE - STORY GROUND INFILTRATION,ALWAYS ON DISCRETE,ZONE WEST PERIMETER SPACE - STORY GROUND,233.52,12.6,0.126,5.378E-004,5.696E-004,0.489,0.000,0.000,0.224,0.000
 ZoneInfiltration Airflow Stats Nominal, WEST PERIMETER SPACE - STORY MID INFILTRATION,ALWAYS ON DISCRETE,ZONE WEST PERIMETER SPACE - STORY MID,233.52,12.6,0.126,5.378E-004,5.696E-004,0.489,0.000,0.000,0.224,0.000
 ZoneInfiltration Airflow Stats Nominal, WEST PERIMETER SPACE - STORY TOP INFILTRATION,ALWAYS ON DISCRETE,ZONE WEST PERIMETER SPACE - STORY TOP,233.52,12.6,0.126,5.378E-004,2.766E-004,0.489,0.000,0.000,0.224,0.000
! <AirFlow Model>, Simple
 AirFlow Model, Simple
! <RoomAir Model>, Zone Name, Mixing/Mundt/UCSDDV/UCSDCV/UCSDUFI/UCSDUFE/User Defined
RoomAir Model,ZONE CORE SPACE - STORY GROUND,Mixing/Well-Stirred
RoomAir Model,ZONE CORE SPACE - STORY MID,Mixing/Well-Stirred
RoomAir Model,ZONE CORE SPACE - STORY TOP,Mixing/Well-Stirred
RoomAir Model,ZONE EAST PERIMETER SPACE - STORY GROUND,Mixing/Well-Stirred
RoomAir Model,ZONE EAST PERIMETER SPACE - STORY MID,Mixing/Well-Stirred
RoomAir Model,ZONE EAST PERIMETER SPACE - STORY TOP,Mixing/Well-Stirred
RoomAir Model,ZONE NORTH PERIMETER SPACE - STORY GROUND,Mixing/Well-Stirred
RoomAir Model,ZONE NORTH PERIMETER SPACE - STORY MID,Mixing/Well-Stirred
RoomAir Model,ZONE NORTH PERIMETER SPACE - STORY TOP,Mixing/Well-Stirred
RoomAir Model,ZONE SOUTH PERIMETER SPACE - STORY GROUND,Mixing/Well-Stirred
RoomAir Model,ZONE SOUTH PERIMETER SPACE - STORY MID,Mixing/Well-Stirred
RoomAir Model,ZONE SOUTH PERIMETER SPACE - STORY TOP,Mixing/Well-Stirred
RoomAir Model,ZONE WEST PERIMETER SPACE - STORY GROUND,Mixing/Well-Stirred
RoomAir Model,ZONE WEST PERIMETER SPACE - STORY MID,Mixing/Well-Stirred
RoomAir Model,ZONE WEST PERIMETER SPACE - STORY TOP,Mixing/Well-Stirred
! <AirflowNetwork Model:Control>, No Multizone or Distribution/Multizone with Distribution/Multizone without Distribution/Multizone with Distribution only during Fan Operation
AirflowNetwork Model:Control,NoMultizoneOrDistribution
! <Zone Volume Capacitance Multiplier>, Sensible Heat Capacity Multiplier, Moisture Capacity Multiplier, Carbon Dioxide Capacity Multiplier, Generic Contaminant Capacity Multiplier
Zone Volume Capacitance Multiplier,   1.000 ,   1.000,   1.000,   1.000
! <Load Timesteps in Zone Design Calculation Averaging Window>, Value
 Load Timesteps in Zone Design Calculation Averaging Window,    4
! <Heating Sizing Factor Information>, Sizing Factor ID, Value
 Heating Sizing Factor Information, Global,   1.2500    
 Heating Sizing Factor Information, Zone ZONE CORE SPACE - STORY GROUND,   1.2500    
 Heating Sizing Factor Information, Zone ZONE CORE SPACE - STORY MID,   1.2500    
 Heating Sizing Factor Information, Zone ZONE CORE SPACE - STORY TOP,   1.2500    
 Heating Sizing Factor Information, Zone ZONE EAST PERIMETER SPACE - STORY GROUND,   1.2500    
 Heating Sizing Factor Information, Zone ZONE EAST PERIMETER SPACE - STORY MID,   1.2500    
 Heating Sizing Factor Information, Zone ZONE EAST PERIMETER SPACE - STORY TOP,   1.2500    
 Heating Sizing Factor Information, Zone ZONE NORTH PERIMETER SPACE - STORY GROUND,   1.2500    
 Heating Sizing Factor Information, Zone ZONE NORTH PERIMETER SPACE - STORY MID,   1.2500    
 Heating Sizing Factor Information, Zone ZONE NORTH PERIMETER SPACE - STORY TOP,   1.2500    
 Heating Sizing Factor Information, Zone ZONE SOUTH PERIMETER SPACE - STORY GROUND,   1.2500    
 Heating Sizing Factor Information, Zone ZONE SOUTH PERIMETER SPACE - STORY MID,   1.2500    
 Heating Sizing Factor Information, Zone ZONE SOUTH PERIMETER SPACE - STORY TOP,   1.2500    
 Heating Sizing Factor Information, Zone ZONE WEST PERIMETER SPACE - STORY GROUND,   1.2500    
 Heating Sizing Factor Information, Zone ZONE WEST PERIMETER SPACE - STORY MID,   1.2500    
 Heating Sizing Factor Information, Zone ZONE WEST PERIMETER SPACE - STORY TOP,   1.2500    
! <Cooling Sizing Factor Information>, Sizing Factor ID, Value
 Cooling Sizing Factor Information, Global,   1.1500    
 Cooling Sizing Factor Information, Zone ZONE CORE SPACE - STORY GROUND,   1.1500    
 Cooling Sizing Factor Information, Zone ZONE CORE SPACE - STORY MID,   1.1500    
 Cooling Sizing Factor Information, Zone ZONE CORE SPACE - STORY TOP,   1.1500    
 Cooling Sizing Factor Information, Zone ZONE EAST PERIMETER SPACE - STORY GROUND,   1.1500    
 Cooling Sizing Factor Information, Zone ZONE EAST PERIMETER SPACE - STORY MID,   1.1500    
 Cooling Sizing Factor Information, Zone ZONE EAST PERIMETER SPACE - STORY TOP,   1.1500    
 Cooling Sizing Factor Information, Zone ZONE NORTH PERIMETER SPACE - STORY GROUND,   1.1500    
 Cooling Sizing Factor Information, Zone ZONE NORTH PERIMETER SPACE - STORY MID,   1.1500    
 Cooling Sizing Factor Information, Zone ZONE NORTH PERIMETER SPACE - STORY TOP,   1.1500    
 Cooling Sizing Factor Information, Zone ZONE SOUTH PERIMETER SPACE - STORY GROUND,   1.1500    
 Cooling Sizing Factor Information, Zone ZONE SOUTH PERIMETER SPACE - STORY MID,   1.1500    
 Cooling Sizing Factor Information, Zone ZONE SOUTH PERIMETER SPACE - STORY TOP,   1.1500    
 Cooling Sizing Factor Information, Zone ZONE WEST PERIMETER SPACE - STORY GROUND,   1.1500    
 Cooling Sizing Factor Information, Zone ZONE WEST PERIMETER SPACE - STORY MID,   1.1500    
 Cooling Sizing Factor Information, Zone ZONE WEST PERIMETER SPACE - STORY TOP,   1.1500    
! <Sky Daylight Factors>, MonthAndDay, Zone Name, Window Name, Reference Point, Daylight Factor
 Sky Daylight Factors,Clear Sky,07/21,ZONE EAST PERIMETER SPACE - STORY GROUND,SUB SURFACE 1,EAST PERIMETER SPACE - STORY GROUND DAYLT SENSOR 1,7.7407E-002
 Sky Daylight Factors,Clear Turbid Sky,07/21,ZONE EAST PERIMETER SPACE - STORY GROUND,SUB SURFACE 1,EAST PERIMETER SPACE - STORY GROUND DAYLT SENSOR 1,7.0428E-002
 Sky Daylight Factors,Intermediate Sky,07/21,ZONE EAST PERIMETER SPACE - STORY GROUND,SUB SURFACE 1,EAST PERIMETER SPACE - STORY GROUND DAYLT SENSOR 1,4.8436E-002
 Sky Daylight Factors,Overcast Sky,07/21,ZONE EAST PERIMETER SPACE - STORY GROUND,SUB SURFACE 1,EAST PERIMETER SPACE - STORY GROUND DAYLT SENSOR 1,6.9641E-002
 Sky Daylight Factors,Clear Sky,07/21,ZONE EAST PERIMETER SPACE - STORY MID,SUB SURFACE 7,EAST PERIMETER SPACE - STORY MID DAYLT SENSOR 1,7.7407E-002
 Sky Daylight Factors,Clear Turbid Sky,07/21,ZONE EAST PERIMETER SPACE - STORY MID,SUB SURFACE 7,EAST PERIMETER SPACE - STORY MID DAYLT SENSOR 1,7.0428E-002
 Sky Daylight Factors,Intermediate Sky,07/21,ZONE EAST PERIMETER SPACE - STORY MID,SUB SURFACE 7,EAST PERIMETER SPACE - STORY MID DAYLT SENSOR 1,4.8436E-002
 Sky Daylight Factors,Overcast Sky,07/21,ZONE EAST PERIMETER SPACE - STORY MID,SUB SURFACE 7,EAST PERIMETER SPACE - STORY MID DAYLT SENSOR 1,6.9641E-002
 Sky Daylight Factors,Clear Sky,07/21,ZONE EAST PERIMETER SPACE - STORY TOP,SUB SURFACE 10,EAST PERIMETER SPACE - STORY TOP DAYLT SENSOR 1,7.7407E-002
 Sky Daylight Factors,Clear Turbid Sky,07/21,ZONE EAST PERIMETER SPACE - STORY TOP,SUB SURFACE 10,EAST PERIMETER SPACE - STORY TOP DAYLT SENSOR 1,7.0428E-002
 Sky Daylight Factors,Intermediate Sky,07/21,ZONE EAST PERIMETER SPACE - STORY TOP,SUB SURFACE 10,EAST PERIMETER SPACE - STORY TOP DAYLT SENSOR 1,4.8436E-002
 Sky Daylight Factors,Overcast Sky,07/21,ZONE EAST PERIMETER SPACE - STORY TOP,SUB SURFACE 10,EAST PERIMETER SPACE - STORY TOP DAYLT SENSOR 1,6.9641E-002
 Sky Daylight Factors,Clear Sky,07/21,ZONE NORTH PERIMETER SPACE - STORY GROUND,SUB SURFACE 4,NORTH PERIMETER SPACE - STORY GROUND DAYLT SENSOR 1,5.9170E-002
 Sky Daylight Factors,Clear Turbid Sky,07/21,ZONE NORTH PERIMETER SPACE - STORY GROUND,SUB SURFACE 4,NORTH PERIMETER SPACE - STORY GROUND DAYLT SENSOR 1,5.0139E-002
 Sky Daylight Factors,Intermediate Sky,07/21,ZONE NORTH PERIMETER SPACE - STORY GROUND,SUB SURFACE 4,NORTH PERIMETER SPACE - STORY GROUND DAYLT SENSOR 1,3.1662E-002
 Sky Daylight Factors,Overcast Sky,07/21,ZONE NORTH PERIMETER SPACE - STORY GROUND,SUB SURFACE 4,NORTH PERIMETER SPACE - STORY GROUND DAYLT SENSOR 1,6.8889E-002
 Sky Daylight Factors,Clear Sky,07/21,ZONE NORTH PERIMETER SPACE - STORY MID,SUB SURFACE 5,NORTH PERIMETER SPACE - STORY MID DAYLT SENSOR 1,5.9170E-002
 Sky Daylight Factors,Clear Turbid Sky,07/21,ZONE NORTH PERIMETER SPACE - STORY MID,SUB SURFACE 5,NORTH PERIMETER SPACE - STORY MID DAYLT SENSOR 1,5.0139E-002
 Sky Daylight Factors,Intermediate Sky,07/21,ZONE NORTH PERIMETER SPACE - STORY MID,SUB SURFACE 5,NORTH PERIMETER SPACE - STORY MID DAYLT SENSOR 1,3.1662E-002
 Sky Daylight Factors,Overcast Sky,07/21,ZONE NORTH PERIMETER SPACE - STORY MID,SUB SURFACE 5,NORTH PERIMETER SPACE - STORY MID DAYLT SENSOR 1,6.8889E-002
 Sky Daylight Factors,Clear Sky,07/21,ZONE NORTH PERIMETER SPACE - STORY TOP,SUB SURFACE 12,NORTH PERIMETER SPACE - STORY TOP DAYLT SENSOR 1,5.9170E-002
 Sky Daylight Factors,Clear Turbid Sky,07/21,ZONE NORTH PERIMETER SPACE - STORY TOP,SUB SURFACE 12,NORTH PERIMETER SPACE - STORY TOP DAYLT SENSOR 1,5.0139E-002
 Sky Daylight Factors,Intermediate Sky,07/21,ZONE NORTH PERIMETER SPACE - STORY TOP,SUB SURFACE 12,NORTH PERIMETER SPACE - STORY TOP DAYLT SENSOR 1,3.1662E-002
 Sky Daylight Factors,Overcast Sky,07/21,ZONE NORTH PERIMETER SPACE - STORY TOP,SUB SURFACE 12,NORTH PERIMETER SPACE - STORY TOP DAYLT SENSOR 1,6.8889E-002
 Sky Daylight Factors,Clear Sky,07/21,ZONE SOUTH PERIMETER SPACE - STORY GROUND,SUB SURFACE 2,SOUTH PERIMETER SPACE - STORY GROUND DAYLT SENSOR 1,8.2320E-002
 Sky Daylight Factors,Clear Turbid Sky,07/21,ZONE SOUTH PERIMETER SPACE - STORY GROUND,SUB SURFACE 2,SOUTH PERIMETER SPACE - STORY GROUND DAYLT SENSOR 1,7.6207E-002
 Sky Daylight Factors,Intermediate Sky,07/21,ZONE SOUTH PERIMETER SPACE - STORY GROUND,SUB SURFACE 2,SOUTH PERIMETER SPACE - STORY GROUND DAYLT SENSOR 1,5.2641E-002
 Sky Daylight Factors,Overcast Sky,07/21,ZONE SOUTH PERIMETER SPACE - STORY GROUND,SUB SURFACE 2,SOUTH PERIMETER SPACE - STORY GROUND DAYLT SENSOR 1,6.8889E-002
 Sky Daylight Factors,Clear Sky,07/21,ZONE SOUTH PERIMETER SPACE - STORY MID,SUB SURFACE 6,SOUTH PERIMETER SPACE - STORY MID DAYLT SENSOR 1,8.2320E-002
 Sky Daylight Factors,Clear Turbid Sky,07/21,ZONE SOUTH PERIMETER SPACE - STORY MID,SUB SURFACE 6,SOUTH PERIMETER SPACE - STORY MID DAYLT SENSOR 1,7.6207E-002
 Sky Daylight Factors,Intermediate Sky,07/21,ZONE SOUTH PERIMETER SPACE - STORY MID,SUB SURFACE 6,SOUTH PERIMETER SPACE - STORY MID DAYLT SENSOR 1,5.2641E-002
 Sky Daylight Factors,Overcast Sky,07/21,ZONE SOUTH PERIMETER SPACE - STORY MID,SUB SURFACE 6,SOUTH PERIMETER SPACE - STORY MID DAYLT SENSOR 1,6.8889E-002
 Sky Daylight Factors,Clear Sky,07/21,ZONE SOUTH PERIMETER SPACE - STORY TOP,SUB SURFACE 11,SOUTH PERIMETER SPACE - STORY TOP DAYLT SENSOR 1,8.2320E-002
 Sky Daylight Factors,Clear Turbid Sky,07/21,ZONE SOUTH PERIMETER SPACE - STORY TOP,SUB SURFACE 11,SOUTH PERIMETER SPACE - STORY TOP DAYLT SENSOR 1,7.6207E-002
 Sky Daylight Factors,Intermediate Sky,07/21,ZONE SOUTH PERIMETER SPACE - STORY TOP,SUB SURFACE 11,SOUTH PERIMETER SPACE - STORY TOP DAYLT SENSOR 1,5.2641E-002
 Sky Daylight Factors,Overcast Sky,07/21,ZONE SOUTH PERIMETER SPACE - STORY TOP,SUB SURFACE 11,SOUTH PERIMETER SPACE - STORY TOP DAYLT SENSOR 1,6.8889E-002
 Sky Daylight Factors,Clear Sky,07/21,ZONE WEST PERIMETER SPACE - STORY GROUND,SUB SURFACE 3,WEST PERIMETER SPACE - STORY GROUND DAYLT SENSOR 1,6.2834E-002
 Sky Daylight Factors,Clear Turbid Sky,07/21,ZONE WEST PERIMETER SPACE - STORY GROUND,SUB SURFACE 3,WEST PERIMETER SPACE - STORY GROUND DAYLT SENSOR 1,5.4039E-002
 Sky Daylight Factors,Intermediate Sky,07/21,ZONE WEST PERIMETER SPACE - STORY GROUND,SUB SURFACE 3,WEST PERIMETER SPACE - STORY GROUND DAYLT SENSOR 1,3.5146E-002
 Sky Daylight Factors,Overcast Sky,07/21,ZONE WEST PERIMETER SPACE - STORY GROUND,SUB SURFACE 3,WEST PERIMETER SPACE - STORY GROUND DAYLT SENSOR 1,6.9641E-002
 Sky Daylight Factors,Clear Sky,07/21,ZONE WEST PERIMETER SPACE - STORY MID,SUB SURFACE 8,WEST PERIMETER SPACE - STORY MID DAYLT SENSOR 1,6.2834E-002
 Sky Daylight Factors,Clear Turbid Sky,07/21,ZONE WEST PERIMETER SPACE - STORY MID,SUB SURFACE 8,WEST PERIMETER SPACE - STORY MID DAYLT SENSOR 1,5.4039E-002
 Sky Daylight Factors,Intermediate Sky,07/21,ZONE WEST PERIMETER SPACE - STORY MID,SUB SURFACE 8,WEST PERIMETER SPACE - STORY MID DAYLT SENSOR 1,3.5146E-002
 Sky Daylight Factors,Overcast Sky,07/21,ZONE WEST PERIMETER SPACE - STORY MID,SUB SURFACE 8,WEST PERIMETER SPACE - STORY MID DAYLT SENSOR 1,6.9641E-002
 Sky Daylight Factors,Clear Sky,07/21,ZONE WEST PERIMETER SPACE - STORY TOP,SUB SURFACE 9,WEST PERIMETER SPACE - STORY TOP DAYLT SENSOR 1,6.2834E-002
 Sky Daylight Factors,Clear Turbid Sky,07/21,ZONE WEST PERIMETER SPACE - STORY TOP,SUB SURFACE 9,WEST PERIMETER SPACE - STORY TOP DAYLT SENSOR 1,5.4039E-002
 Sky Daylight Factors,Intermediate Sky,07/21,ZONE WEST PERIMETER SPACE - STORY TOP,SUB SURFACE 9,WEST PERIMETER SPACE - STORY TOP DAYLT SENSOR 1,3.5146E-002
 Sky Daylight Factors,Overcast Sky,07/21,ZONE WEST PERIMETER SPACE - STORY TOP,SUB SURFACE 9,WEST PERIMETER SPACE - STORY TOP DAYLT SENSOR 1,6.9641E-002
! <Zone Sizing Information>, Zone Name, Load Type, Calc Des Load {W}, User Des Load {W}, Calc Des Air Flow Rate {m3/s}, User Des Air Flow Rate {m3/s}, Design Day Name, Date/Time of Peak, Temperature at Peak {C}, Humidity Ratio at Peak {kgWater/kgDryAir}, Floor Area {m2}, # Occupants, Calc Outdoor Air Flow Rate {m3/s}, Calc DOAS Heat Addition Rate {W}
 Zone Sizing Information, ZONE CORE SPACE - STORY GROUND, Cooling, 33664.36062, 38714.01472, 2.67862, 3.08041, TUCSON INTERNATIONAL AP ANN CLG .4% CONDNS DB=>MWB 1, 7/21 08:30:00, 32.19900, 6.10656E-003, 3456.63747, 186.03468, 1.49258, 0.00000
 Zone Sizing Information, ZONE CORE SPACE - STORY GROUND, Heating, 28634.15981, 35792.69976, 1.34855, 1.68569, TUCSON INTERNATIONAL AP ANN HTG 99.6% CONDNS DB 1, 12/21 08:30:00, -0.20000, 4.07618E-003, 3456.63747, 186.03468, 1.49258, 0.00000
 Zone Sizing Information, ZONE CORE SPACE - STORY MID, Cooling, 2087121.35117, 2400189.55384, 160.85505, 184.98330, TUCSON INTERNATIONAL AP ANN CLG .4% CONDNS WB=>MDB 1, 7/21 07:45:00, 20.80150, 1.51093E-002, 3456.63747, 186.03468, 26.86637, 0.00000
 Zone Sizing Information, ZONE CORE SPACE - STORY MID, Heating, 222391.70863, 277989.63579, 10.24674, 26.86637, TUCSON INTERNATIONAL AP ANN HTG 99.6% CONDNS DB 1, 12/21 08:00:00, -0.20000, 4.07618E-003, 3456.63747, 186.03468, 26.86637, 0.00000
 Zone Sizing Information, ZONE CORE SPACE - STORY TOP, Cooling, 114921.27159, 132159.46233, 8.84928, 10.17667, TUCSON INTERNATIONAL AP ANN CLG .4% CONDNS WB=>MDB 1, 7/21 07:45:00, 20.80150, 1.51093E-002, 3456.63747, 186.03468, 1.49258, 0.00000
 Zone Sizing Information, ZONE CORE SPACE - STORY TOP, Heating, 57887.23463, 72359.04329, 2.67855, 3.34818, TUCSON INTERNATIONAL AP ANN HTG 99.6% CONDNS DB 1, 12/21 08:00:00, -0.20000, 4.07618E-003, 3456.63747, 186.03468, 1.49258, 0.00000
 Zone Sizing Information, ZONE EAST PERIMETER SPACE - STORY GROUND, Cooling, 15773.90183, 18139.98711, 1.25498, 1.44323, TUCSON INTERNATIONAL AP ANN CLG .4% CONDNS DB=>MWB 1, 7/21 09:30:00, 34.68300, 6.11040E-003, 233.52227, 12.56806, 0.10083, 0.00000
 Zone Sizing Information, ZONE EAST PERIMETER SPACE - STORY GROUND, Heating, 8364.83566, 10456.04458, 0.25612, 0.32015, TUCSON INTERNATIONAL AP ANN HTG 99.6% CONDNS DB 1, 12/21 08:00:00, -0.20000, 4.07618E-003, 233.52227, 12.56806, 0.10083, 0.00000
 Zone Sizing Information, ZONE EAST PERIMETER SPACE - STORY MID, Cooling, 432117.12254, 496934.69093, 34.37753, 39.53416, TUCSON INTERNATIONAL AP ANN CLG .4% CONDNS DB=>MWB 1, 7/21 09:45:00, 35.26950, 6.11130E-003, 233.52227, 12.56806, 1.81503, 0.00000
 Zone Sizing Information, ZONE EAST PERIMETER SPACE - STORY MID, Heating, 167233.35788, 209041.69735, 7.79514, 9.74392, TUCSON INTERNATIONAL AP ANN HTG 99.6% CONDNS DB 1, 12/21 08:00:00, -0.20000, 4.07618E-003, 233.52227, 12.56806, 1.81503, 0.00000
 Zone Sizing Information, ZONE EAST PERIMETER SPACE - STORY TOP, Cooling, 26645.48823, 30642.31146, 2.11977, 2.43773, TUCSON INTERNATIONAL AP ANN CLG .4% CONDNS DB=>MWB 1, 7/21 09:45:00, 35.26950, 6.11130E-003, 233.52227, 12.56806, 0.10083, 0.00000
 Zone Sizing Information, ZONE EAST PERIMETER SPACE - STORY TOP, Heating, 12240.50896, 15300.63620, 0.57113, 0.71391, TUCSON INTERNATIONAL AP ANN HTG 99.6% CONDNS DB 1, 12/21 08:00:00, -0.20000, 4.07618E-003, 233.52227, 12.56806, 0.10083, 0.00000
 Zone Sizing Information, ZONE NORTH PERIMETER SPACE - STORY GROUND, Cooling, 10142.13365, 11663.45369, 0.80693, 0.92797, TUCSON INTERNATIONAL AP ANN CLG .4% CONDNS DB=>MWB 1, 7/21 15:00:00, 41.10000, 6.12044E-003, 360.73500, 19.41460, 0.15577, 0.00000
 Zone Sizing Information, ZONE NORTH PERIMETER SPACE - STORY GROUND, Heating, 12464.27126, 15580.33907, 0.38159, 0.47699, TUCSON INTERNATIONAL AP ANN HTG 99.6% CONDNS DB 1, 12/21 08:00:00, -0.20000, 4.07618E-003, 360.73500, 19.41460, 0.15577, 0.00000
 Zone Sizing Information, ZONE NORTH PERIMETER SPACE - STORY MID, Cooling, 350783.21931, 403400.70221, 27.90708, 32.09314, TUCSON INTERNATIONAL AP ANN CLG .4% CONDNS DB=>MWB 1, 7/21 15:00:00, 41.10000, 6.12044E-003, 360.73500, 19.41460, 2.80378, 0.00000
 Zone Sizing Information, ZONE NORTH PERIMETER SPACE - STORY MID, Heating, 248947.21687, 311184.02109, 11.60188, 14.50235, TUCSON INTERNATIONAL AP ANN HTG 99.6% CONDNS DB 1, 12/21 08:00:00, -0.20000, 4.07618E-003, 360.73500, 19.41460, 2.80378, 0.00000
 Zone Sizing Information, ZONE NORTH PERIMETER SPACE - STORY TOP, Cooling, 22086.24958, 25399.18702, 1.75707, 2.02063, TUCSON INTERNATIONAL AP ANN CLG .4% CONDNS DB=>MWB 1, 7/21 14:45:00, 41.10000, 6.12044E-003, 360.73500, 19.41460, 0.15577, 0.00000
 Zone Sizing Information, ZONE NORTH PERIMETER SPACE - STORY TOP, Heating, 18460.84183, 23076.05228, 0.86128, 1.07660, TUCSON INTERNATIONAL AP ANN HTG 99.6% CONDNS DB 1, 12/21 08:00:00, -0.20000, 4.07618E-003, 360.73500, 19.41460, 0.15577, 0.00000
 Zone Sizing Information, ZONE SOUTH PERIMETER SPACE - STORY GROUND, Cooling, 12553.00043, 14435.95049, 0.99874, 1.14855, TUCSON INTERNATIONAL AP ANN CLG .4% CONDNS DB=>MWB 1, 7/21 13:45:00, 40.92750, 6.12018E-003, 360.73500, 19.41460, 0.15577, 0.00000
 Zone Sizing Information, ZONE SOUTH PERIMETER SPACE - STORY GROUND, Heating, 12553.31286, 15691.64108, 0.38433, 0.48041, TUCSON INTERNATIONAL AP ANN HTG 99.6% CONDNS DB 1, 12/21 08:00:00, -0.20000, 4.07618E-003, 360.73500, 19.41460, 0.15577, 0.00000
 Zone Sizing Information, ZONE SOUTH PERIMETER SPACE - STORY MID, Cooling, 399453.46765, 459371.48780, 31.77910, 36.54597, TUCSON INTERNATIONAL AP ANN CLG .4% CONDNS DB=>MWB 1, 7/21 13:45:00, 40.92750, 6.12018E-003, 360.73500, 19.41460, 2.80378, 0.00000
 Zone Sizing Information, ZONE SOUTH PERIMETER SPACE - STORY MID, Heating, 248569.94007, 310712.42509, 11.58418, 14.48022, TUCSON INTERNATIONAL AP ANN HTG 99.6% CONDNS DB 1, 12/21 08:00:00, -0.20000, 4.07618E-003, 360.73500, 19.41460, 2.80378, 0.00000
 Zone Sizing Information, ZONE SOUTH PERIMETER SPACE - STORY TOP, Cooling, 25103.18381, 28868.66138, 1.99708, 2.29664, TUCSON INTERNATIONAL AP ANN CLG .4% CONDNS DB=>MWB 1, 7/21 14:00:00, 41.10000, 6.12044E-003, 360.73500, 19.41460, 0.15577, 0.00000
 Zone Sizing Information, ZONE SOUTH PERIMETER SPACE - STORY TOP, Heating, 18456.32452, 23070.40565, 0.86107, 1.07634, TUCSON INTERNATIONAL AP ANN HTG 99.6% CONDNS DB 1, 12/21 08:00:00, -0.20000, 4.07618E-003, 360.73500, 19.41460, 0.15577, 0.00000
 Zone Sizing Information, ZONE WEST PERIMETER SPACE - STORY GROUND, Cooling, 17078.68229, 19640.48463, 1.35880, 1.56261, TUCSON INTERNATIONAL AP ANN CLG .4% CONDNS DB=>MWB 1, 7/21 17:00:00, 39.16800, 6.11741E-003, 233.52227, 12.56806, 0.10083, 0.00000
 Zone Sizing Information, ZONE WEST PERIMETER SPACE - STORY GROUND, Heating, 8366.85646, 10458.57058, 0.25618, 0.32023, TUCSON INTERNATIONAL AP ANN HTG 99.6% CONDNS DB 1, 12/21 08:00:00, -0.20000, 4.07618E-003, 233.52227, 12.56806, 0.10083, 0.00000
 Zone Sizing Information, ZONE WEST PERIMETER SPACE - STORY MID, Cooling, 445683.11925, 512535.58714, 35.45688, 40.77541, TUCSON INTERNATIONAL AP ANN CLG .4% CONDNS DB=>MWB 1, 7/21 17:15:00, 38.82300, 6.11686E-003, 233.52227, 12.56806, 1.81503, 0.00000
 Zone Sizing Information, ZONE WEST PERIMETER SPACE - STORY MID, Heating, 167198.14566, 208997.68208, 7.79349, 9.74186, TUCSON INTERNATIONAL AP ANN HTG 99.6% CONDNS DB 1, 12/21 08:00:00, -0.20000, 4.07618E-003, 233.52227, 12.56806, 1.81503, 0.00000
 Zone Sizing Information, ZONE WEST PERIMETER SPACE - STORY TOP, Cooling, 28050.89515, 32258.52943, 2.23158, 2.56632, TUCSON INTERNATIONAL AP ANN CLG .4% CONDNS DB=>MWB 1, 7/21 17:00:00, 39.16800, 6.11741E-003, 233.52227, 12.56806, 0.10083, 0.00000
 Zone Sizing Information, ZONE WEST PERIMETER SPACE - STORY TOP, Heating, 12238.03415, 15297.54269, 0.57101, 0.71376, TUCSON INTERNATIONAL AP ANN HTG 99.6% CONDNS DB 1, 12/21 08:00:00, -0.20000, 4.07618E-003, 233.52227, 12.56806, 0.10083, 0.00000
! <System Sizing Information>, System Name, Load Type, Peak Load Kind, User Design Capacity, Calc Des Air Flow Rate [m3/s], User Des Air Flow Rate [m3/s], Design Day Name, Date/Time of Peak
 System Sizing Information, 1 ZONE VAV, Cooling, Sensible, 63031.27, 3.08041, 3.08041, TUCSON INTERNATIONAL AP ANN CLG .4% CONDNS DB=>MWB 1, 7/21 00:00:00
 System Sizing Information, 1 ZONE VAV, Heating, Sensible, 21360.76, 1.68569, 1.68569, TUCSON INTERNATIONAL AP ANN HTG 99.6% CONDNS DB 1, 12/21 00:15:00
 System Sizing Information, 5 ZONE VAV, Cooling, Sensible, 4538980.01, 282.44156, 282.44156, TUCSON INTERNATIONAL AP ANN CLG .4% CONDNS DB=>MWB 1, 7/21 00:00:00
 System Sizing Information, 5 ZONE VAV, Heating, Sensible, 858414.89, 75.33473, 75.33473, TUCSON INTERNATIONAL AP ANN HTG 99.6% CONDNS DB 1, 12/21 22:00:00
 System Sizing Information, 5 ZONE VAV 1, Cooling, Sensible, 276862.71, 17.34198, 17.34198, TUCSON INTERNATIONAL AP ANN CLG .4% CONDNS DB=>MWB 1, 7/21 00:00:00
 System Sizing Information, 5 ZONE VAV 1, Heating, Sensible, 46955.40, 6.92880, 6.92880, TUCSON INTERNATIONAL AP ANN HTG 99.6% CONDNS DB 1, 12/21 06:15:00
 System Sizing Information, ZONE EAST PERIMETER SPACE - STORY GROUND PSZ-AC, Cooling, Sensible, 19100.27, 1.44323, 1.44323, TUCSON INTERNATIONAL AP ANN CLG .4% CONDNS DB=>MWB 1, 7/21 05:00:00
 System Sizing Information, ZONE EAST PERIMETER SPACE - STORY GROUND PSZ-AC, Heating, Sensible, 12614.10, 0.32015, 0.32015, TUCSON INTERNATIONAL AP ANN HTG 99.6% CONDNS DB 1, 12/21 08:00:00
 System Sizing Information, ZONE NORTH PERIMETER SPACE - STORY GROUND PSZ-AC, Cooling, Sensible, 14420.53, 0.92797, 0.92797, TUCSON INTERNATIONAL AP ANN CLG .4% CONDNS DB=>MWB 1, 7/21 05:00:00
 System Sizing Information, ZONE NORTH PERIMETER SPACE - STORY GROUND PSZ-AC, Heating, Sensible, 18945.81, 0.47699, 0.47699, TUCSON INTERNATIONAL AP ANN HTG 99.6% CONDNS DB 1, 12/21 08:00:00
 System Sizing Information, ZONE SOUTH PERIMETER SPACE - STORY GROUND PSZ-AC, Cooling, Sensible, 17125.42, 1.14855, 1.14855, TUCSON INTERNATIONAL AP ANN CLG .4% CONDNS DB=>MWB 1, 7/21 05:00:00
 System Sizing Information, ZONE SOUTH PERIMETER SPACE - STORY GROUND PSZ-AC, Heating, Sensible, 19032.02, 0.48041, 0.48041, TUCSON INTERNATIONAL AP ANN HTG 99.6% CONDNS DB 1, 12/21 08:00:00
 System Sizing Information, ZONE WEST PERIMETER SPACE - STORY GROUND PSZ-AC, Cooling, Sensible, 21023.48, 1.56261, 1.56261, TUCSON INTERNATIONAL AP ANN CLG .4% CONDNS DB=>MWB 1, 7/21 05:00:00
 System Sizing Information, ZONE WEST PERIMETER SPACE - STORY GROUND PSZ-AC, Heating, Sensible, 12616.59, 0.32023, 0.32023, TUCSON INTERNATIONAL AP ANN HTG 99.6% CONDNS DB 1, 12/21 08:00:00
! <Component Sizing Information>, Component Type, Component Name, Input Field Description, Value
 Component Sizing Information, AirTerminal:SingleDuct:VAV:Reheat, ZONE CORE SPACE - STORY GROUND VAV TERMINAL, Design Size Maximum Air Flow Rate [m3/s], 3.08041
 Component Sizing Information, AirTerminal:SingleDuct:VAV:Reheat, ZONE CORE SPACE - STORY GROUND VAV TERMINAL, Design Size Constant Minimum Air Flow Fraction, 0.85507
 Component Sizing Information, AirTerminal:SingleDuct:VAV:Reheat, ZONE CORE SPACE - STORY GROUND VAV TERMINAL, User-Specified Constant Minimum Air Flow Fraction, 0.20000
 Component Sizing Information, AirTerminal:SingleDuct:VAV:Reheat, ZONE CORE SPACE - STORY GROUND VAV TERMINAL, Design Size Minimum Air Flow Rate [m3/s], 0.61608
 Component Sizing Information, AirTerminal:SingleDuct:VAV:Reheat, ZONE CORE SPACE - STORY GROUND VAV TERMINAL, Design Size Maximum Flow Fraction during Reheat [], 1.00000
 Component Sizing Information, AirTerminal:SingleDuct:VAV:Reheat, ZONE CORE SPACE - STORY GROUND VAV TERMINAL, User-Specified Maximum Flow Fraction during Reheat [], 0.50000
 Component Sizing Information, AirTerminal:SingleDuct:VAV:Reheat, ZONE CORE SPACE - STORY GROUND VAV TERMINAL, Design Size Maximum Flow per Zone Floor Area during Reheat [m3/s-m2], 4.45580E-004
 Component Sizing Information, AirTerminal:SingleDuct:VAV:Reheat, ZONE CORE SPACE - STORY GROUND VAV TERMINAL, Design Size Maximum Reheat Water Flow Rate [m3/s], 1.12214E-003
 Component Sizing Information, AirTerminal:SingleDuct:VAV:Reheat, ZONE CORE SPACE - STORY GROUND VAV TERMINAL, Design Size Reheat Coil Sizing Air Volume Flow Rate [m3/s], 1.68569
 Component Sizing Information, AirTerminal:SingleDuct:VAV:Reheat, ZONE CORE SPACE - STORY GROUND VAV TERMINAL, Design Size Reheat Coil Sizing Inlet Air Temperature [C], 12.77778
 Component Sizing Information, AirTerminal:SingleDuct:VAV:Reheat, ZONE CORE SPACE - STORY GROUND VAV TERMINAL, Design Size Reheat Coil Sizing Inlet Air Humidity Ratio [kgWater/kgDryAir], 8.00000E-003
 Component Sizing Information, Coil:Heating:Water, ZONE CORE SPACE - STORY GROUND REHEAT COIL, Design Size Rated Capacity [W], 51302.97551
 Component Sizing Information, Coil:Heating:Water, ZONE CORE SPACE - STORY GROUND REHEAT COIL, Design Size Maximum Water Flow Rate [m3/s], 1.12214E-003
 Component Sizing Information, Coil:Heating:Water, ZONE CORE SPACE - STORY GROUND REHEAT COIL, Design Size U-Factor Times Area Value [W/K], 1065.00284
! <Water Heating Coil Capacity Information>,Component Type,Name,Nominal Total Capacity {W}
Water Heating Coil Capacity Information,Coil:Heating:Water,ZONE CORE SPACE - STORY GROUND REHEAT COIL,48515.24
 Component Sizing Information, AirTerminal:SingleDuct:VAV:Reheat, ZONE CORE SPACE - STORY MID VAV TERMINAL, Design Size Maximum Air Flow Rate [m3/s], 184.98330
 Component Sizing Information, AirTerminal:SingleDuct:VAV:Reheat, ZONE CORE SPACE - STORY MID VAV TERMINAL, Design Size Constant Minimum Air Flow Fraction, 0.25630
 Component Sizing Information, AirTerminal:SingleDuct:VAV:Reheat, ZONE CORE SPACE - STORY MID VAV TERMINAL, User-Specified Constant Minimum Air Flow Fraction, 0.33865
 Component Sizing Information, AirTerminal:SingleDuct:VAV:Reheat, ZONE CORE SPACE - STORY MID VAV TERMINAL, Design Size Minimum Air Flow Rate [m3/s], 62.64393
 Component Sizing Information, AirTerminal:SingleDuct:VAV:Reheat, ZONE CORE SPACE - STORY MID VAV TERMINAL, Design Size Maximum Flow Fraction during Reheat [], 0.68347
 Component Sizing Information, AirTerminal:SingleDuct:VAV:Reheat, ZONE CORE SPACE - STORY MID VAV TERMINAL, User-Specified Maximum Flow Fraction during Reheat [], 0.50000
 Component Sizing Information, AirTerminal:SingleDuct:VAV:Reheat, ZONE CORE SPACE - STORY MID VAV TERMINAL, Design Size Maximum Flow per Zone Floor Area during Reheat [m3/s-m2], 1.48654E-003
 Component Sizing Information, AirTerminal:SingleDuct:VAV:Reheat, ZONE CORE SPACE - STORY MID VAV TERMINAL, Design Size Maximum Reheat Water Flow Rate [m3/s], 1.86887E-002
 Component Sizing Information, AirTerminal:SingleDuct:VAV:Reheat, ZONE CORE SPACE - STORY MID VAV TERMINAL, Design Size Reheat Coil Sizing Air Volume Flow Rate [m3/s], 62.64393
 Component Sizing Information, AirTerminal:SingleDuct:VAV:Reheat, ZONE CORE SPACE - STORY MID VAV TERMINAL, Design Size Reheat Coil Sizing Inlet Air Temperature [C], 12.77778
 Component Sizing Information, AirTerminal:SingleDuct:VAV:Reheat, ZONE CORE SPACE - STORY MID VAV TERMINAL, Design Size Reheat Coil Sizing Inlet Air Humidity Ratio [kgWater/kgDryAir], 8.00000E-003
 Component Sizing Information, Coil:Heating:Water, ZONE CORE SPACE - STORY MID REHEAT COIL, Design Size Rated Capacity [W], 854426.38652
 Component Sizing Information, Coil:Heating:Water, ZONE CORE SPACE - STORY MID REHEAT COIL, Design Size Maximum Water Flow Rate [m3/s], 1.86887E-002
 Component Sizing Information, Coil:Heating:Water, ZONE CORE SPACE - STORY MID REHEAT COIL, Design Size U-Factor Times Area Value [W/K], 15512.33667
Water Heating Coil Capacity Information,Coil:Heating:Water,ZONE CORE SPACE - STORY MID REHEAT COIL,808634.93
 Component Sizing Information, AirTerminal:SingleDuct:VAV:Reheat, ZONE CORE SPACE - STORY TOP VAV TERMINAL, Design Size Maximum Air Flow Rate [m3/s], 10.17667
 Component Sizing Information, AirTerminal:SingleDuct:VAV:Reheat, ZONE CORE SPACE - STORY TOP VAV TERMINAL, Design Size Constant Minimum Air Flow Fraction, 0.25882
 Component Sizing Information, AirTerminal:SingleDuct:VAV:Reheat, ZONE CORE SPACE - STORY TOP VAV TERMINAL, User-Specified Constant Minimum Air Flow Fraction, 0.32440
 Component Sizing Information, AirTerminal:SingleDuct:VAV:Reheat, ZONE CORE SPACE - STORY TOP VAV TERMINAL, Design Size Minimum Air Flow Rate [m3/s], 3.30134
 Component Sizing Information, AirTerminal:SingleDuct:VAV:Reheat, ZONE CORE SPACE - STORY TOP VAV TERMINAL, Design Size Maximum Flow Fraction during Reheat [], 0.69019
 Component Sizing Information, AirTerminal:SingleDuct:VAV:Reheat, ZONE CORE SPACE - STORY TOP VAV TERMINAL, User-Specified Maximum Flow Fraction during Reheat [], 0.50000
 Component Sizing Information, AirTerminal:SingleDuct:VAV:Reheat, ZONE CORE SPACE - STORY TOP VAV TERMINAL, Design Size Maximum Flow per Zone Floor Area during Reheat [m3/s-m2], 1.47205E-003
 Component Sizing Information, AirTerminal:SingleDuct:VAV:Reheat, ZONE CORE SPACE - STORY TOP VAV TERMINAL, Design Size Maximum Reheat Water Flow Rate [m3/s], 2.25654E-003
 Component Sizing Information, AirTerminal:SingleDuct:VAV:Reheat, ZONE CORE SPACE - STORY TOP VAV TERMINAL, Design Size Reheat Coil Sizing Air Volume Flow Rate [m3/s], 3.34818
 Component Sizing Information, AirTerminal:SingleDuct:VAV:Reheat, ZONE CORE SPACE - STORY TOP VAV TERMINAL, Design Size Reheat Coil Sizing Inlet Air Temperature [C], 12.77778
 Component Sizing Information, AirTerminal:SingleDuct:VAV:Reheat, ZONE CORE SPACE - STORY TOP VAV TERMINAL, Design Size Reheat Coil Sizing Inlet Air Humidity Ratio [kgWater/kgDryAir], 8.00000E-003
 Component Sizing Information, Coil:Heating:Water, ZONE CORE SPACE - STORY TOP REHEAT COIL, Design Size Rated Capacity [W], 103166.15943
 Component Sizing Information, Coil:Heating:Water, ZONE CORE SPACE - STORY TOP REHEAT COIL, Design Size Maximum Water Flow Rate [m3/s], 2.25654E-003
 Component Sizing Information, Coil:Heating:Water, ZONE CORE SPACE - STORY TOP REHEAT COIL, Design Size U-Factor Times Area Value [W/K], 2149.60896
Water Heating Coil Capacity Information,Coil:Heating:Water,ZONE CORE SPACE - STORY TOP REHEAT COIL,97559.50
 Component Sizing Information, AirTerminal:SingleDuct:ConstantVolume:NoReheat, ZONE EAST PERIMETER SPACE - STORY GROUND PSZ-AC DIFFUSER, Design Size Maximum Air Flow Rate [m3/s], 1.44323
 Component Sizing Information, AirTerminal:SingleDuct:VAV:Reheat, ZONE EAST PERIMETER SPACE - STORY MID VAV TERMINAL, Design Size Maximum Air Flow Rate [m3/s], 39.53416
 Component Sizing Information, AirTerminal:SingleDuct:VAV:Reheat, ZONE EAST PERIMETER SPACE - STORY MID VAV TERMINAL, Design Size Constant Minimum Air Flow Fraction, 8.10183E-002
 Component Sizing Information, AirTerminal:SingleDuct:VAV:Reheat, ZONE EAST PERIMETER SPACE - STORY MID VAV TERMINAL, User-Specified Constant Minimum Air Flow Fraction, 0.20000
 Component Sizing Information, AirTerminal:SingleDuct:VAV:Reheat, ZONE EAST PERIMETER SPACE - STORY MID VAV TERMINAL, Design Size Minimum Air Flow Rate [m3/s], 7.90683
 Component Sizing Information, AirTerminal:SingleDuct:VAV:Reheat, ZONE EAST PERIMETER SPACE - STORY MID VAV TERMINAL, Design Size Maximum Flow Fraction during Reheat [], 0.30000
 Component Sizing Information, AirTerminal:SingleDuct:VAV:Reheat, ZONE EAST PERIMETER SPACE - STORY MID VAV TERMINAL, User-Specified Maximum Flow Fraction during Reheat [], 0.50000
 Component Sizing Information, AirTerminal:SingleDuct:VAV:Reheat, ZONE EAST PERIMETER SPACE - STORY MID VAV TERMINAL, Design Size Maximum Flow per Zone Floor Area during Reheat [m3/s-m2], 4.70264E-003
 Component Sizing Information, AirTerminal:SingleDuct:VAV:Reheat, ZONE EAST PERIMETER SPACE - STORY MID VAV TERMINAL, Design Size Maximum Reheat Water Flow Rate [m3/s], 6.53039E-003
 Component Sizing Information, AirTerminal:SingleDuct:VAV:Reheat, ZONE EAST PERIMETER SPACE - STORY MID VAV TERMINAL, Design Size Reheat Coil Sizing Air Volume Flow Rate [m3/s], 9.74392
 Component Sizing Information, AirTerminal:SingleDuct:VAV:Reheat, ZONE EAST PERIMETER SPACE - STORY MID VAV TERMINAL, Design Size Reheat Coil Sizing Inlet Air Temperature [C], 12.77778
 Component Sizing Information, AirTerminal:SingleDuct:VAV:Reheat, ZONE EAST PERIMETER SPACE - STORY MID VAV TERMINAL, Design Size Reheat Coil Sizing Inlet Air Humidity Ratio [kgWater/kgDryAir], 8.00000E-003
 Component Sizing Information, Coil:Heating:Water, ZONE EAST PERIMETER SPACE - STORY MID REHEAT COIL, Design Size Rated Capacity [W], 298561.65624
 Component Sizing Information, Coil:Heating:Water, ZONE EAST PERIMETER SPACE - STORY MID REHEAT COIL, Design Size Maximum Water Flow Rate [m3/s], 6.53039E-003
 Component Sizing Information, Coil:Heating:Water, ZONE EAST PERIMETER SPACE - STORY MID REHEAT COIL, Design Size U-Factor Times Area Value [W/K], 6210.42638
Water Heating Coil Capacity Information,Coil:Heating:Water,ZONE EAST PERIMETER SPACE - STORY MID REHEAT COIL,282337.00
 Component Sizing Information, AirTerminal:SingleDuct:VAV:Reheat, ZONE EAST PERIMETER SPACE - STORY TOP VAV TERMINAL, Design Size Maximum Air Flow Rate [m3/s], 2.43773
 Component Sizing Information, AirTerminal:SingleDuct:VAV:Reheat, ZONE EAST PERIMETER SPACE - STORY TOP VAV TERMINAL, Design Size Constant Minimum Air Flow Fraction, 7.29957E-002
 Component Sizing Information, AirTerminal:SingleDuct:VAV:Reheat, ZONE EAST PERIMETER SPACE - STORY TOP VAV TERMINAL, User-Specified Constant Minimum Air Flow Fraction, 0.20000
 Component Sizing Information, AirTerminal:SingleDuct:VAV:Reheat, ZONE EAST PERIMETER SPACE - STORY TOP VAV TERMINAL, Design Size Minimum Air Flow Rate [m3/s], 0.48755
 Component Sizing Information, AirTerminal:SingleDuct:VAV:Reheat, ZONE EAST PERIMETER SPACE - STORY TOP VAV TERMINAL, Design Size Maximum Flow Fraction during Reheat [], 0.30000
 Component Sizing Information, AirTerminal:SingleDuct:VAV:Reheat, ZONE EAST PERIMETER SPACE - STORY TOP VAV TERMINAL, User-Specified Maximum Flow Fraction during Reheat [], 0.50000
 Component Sizing Information, AirTerminal:SingleDuct:VAV:Reheat, ZONE EAST PERIMETER SPACE - STORY TOP VAV TERMINAL, Design Size Maximum Flow per Zone Floor Area during Reheat [m3/s-m2], 5.21948E-003
 Component Sizing Information, AirTerminal:SingleDuct:VAV:Reheat, ZONE EAST PERIMETER SPACE - STORY TOP VAV TERMINAL, Design Size Maximum Reheat Water Flow Rate [m3/s], 4.78203E-004
 Component Sizing Information, AirTerminal:SingleDuct:VAV:Reheat, ZONE EAST PERIMETER SPACE - STORY TOP VAV TERMINAL, Design Size Reheat Coil Sizing Air Volume Flow Rate [m3/s], 0.71391
 Component Sizing Information, AirTerminal:SingleDuct:VAV:Reheat, ZONE EAST PERIMETER SPACE - STORY TOP VAV TERMINAL, Design Size Reheat Coil Sizing Inlet Air Temperature [C], 12.77778
 Component Sizing Information, AirTerminal:SingleDuct:VAV:Reheat, ZONE EAST PERIMETER SPACE - STORY TOP VAV TERMINAL, Design Size Reheat Coil Sizing Inlet Air Humidity Ratio [kgWater/kgDryAir], 8.00000E-003
 Component Sizing Information, Coil:Heating:Water, ZONE EAST PERIMETER SPACE - STORY TOP REHEAT COIL, Design Size Rated Capacity [W], 21862.85972
 Component Sizing Information, Coil:Heating:Water, ZONE EAST PERIMETER SPACE - STORY TOP REHEAT COIL, Design Size Maximum Water Flow Rate [m3/s], 4.78203E-004
 Component Sizing Information, Coil:Heating:Water, ZONE EAST PERIMETER SPACE - STORY TOP REHEAT COIL, Design Size U-Factor Times Area Value [W/K], 454.69804
Water Heating Coil Capacity Information,Coil:Heating:Water,ZONE EAST PERIMETER SPACE - STORY TOP REHEAT COIL,20674.78
 Component Sizing Information, AirTerminal:SingleDuct:ConstantVolume:NoReheat, ZONE NORTH PERIMETER SPACE - STORY GROUND PSZ-AC DIFFUSER, Design Size Maximum Air Flow Rate [m3/s], 0.92797
 Component Sizing Information, AirTerminal:SingleDuct:VAV:Reheat, ZONE NORTH PERIMETER SPACE - STORY MID VAV TERMINAL, Design Size Maximum Air Flow Rate [m3/s], 32.09314
 Component Sizing Information, AirTerminal:SingleDuct:VAV:Reheat, ZONE NORTH PERIMETER SPACE - STORY MID VAV TERMINAL, Design Size Constant Minimum Air Flow Fraction, 0.15417
 Component Sizing Information, AirTerminal:SingleDuct:VAV:Reheat, ZONE NORTH PERIMETER SPACE - STORY MID VAV TERMINAL, User-Specified Constant Minimum Air Flow Fraction, 0.20000
 Component Sizing Information, AirTerminal:SingleDuct:VAV:Reheat, ZONE NORTH PERIMETER SPACE - STORY MID VAV TERMINAL, Design Size Minimum Air Flow Rate [m3/s], 6.41863
 Component Sizing Information, AirTerminal:SingleDuct:VAV:Reheat, ZONE NORTH PERIMETER SPACE - STORY MID VAV TERMINAL, Design Size Maximum Flow Fraction during Reheat [], 0.41112
 Component Sizing Information, AirTerminal:SingleDuct:VAV:Reheat, ZONE NORTH PERIMETER SPACE - STORY MID VAV TERMINAL, User-Specified Maximum Flow Fraction during Reheat [], 0.50000
 Component Sizing Information, AirTerminal:SingleDuct:VAV:Reheat, ZONE NORTH PERIMETER SPACE - STORY MID VAV TERMINAL, Design Size Maximum Flow per Zone Floor Area during Reheat [m3/s-m2], 2.47128E-003
 Component Sizing Information, AirTerminal:SingleDuct:VAV:Reheat, ZONE NORTH PERIMETER SPACE - STORY MID VAV TERMINAL, Design Size Maximum Reheat Water Flow Rate [m3/s], 9.72058E-003
 Component Sizing Information, AirTerminal:SingleDuct:VAV:Reheat, ZONE NORTH PERIMETER SPACE - STORY MID VAV TERMINAL, Design Size Reheat Coil Sizing Air Volume Flow Rate [m3/s], 14.50235
 Component Sizing Information, AirTerminal:SingleDuct:VAV:Reheat, ZONE NORTH PERIMETER SPACE - STORY MID VAV TERMINAL, Design Size Reheat Coil Sizing Inlet Air Temperature [C], 12.77778
 Component Sizing Information, AirTerminal:SingleDuct:VAV:Reheat, ZONE NORTH PERIMETER SPACE - STORY MID VAV TERMINAL, Design Size Reheat Coil Sizing Inlet Air Humidity Ratio [kgWater/kgDryAir], 8.00000E-003
 Component Sizing Information, Coil:Heating:Water, ZONE NORTH PERIMETER SPACE - STORY MID REHEAT COIL, Design Size Rated Capacity [W], 444413.11297
 Component Sizing Information, Coil:Heating:Water, ZONE NORTH PERIMETER SPACE - STORY MID REHEAT COIL, Design Size Maximum Water Flow Rate [m3/s], 9.72058E-003
 Component Sizing Information, Coil:Heating:Water, ZONE NORTH PERIMETER SPACE - STORY MID REHEAT COIL, Design Size U-Factor Times Area Value [W/K], 9244.61421
Water Heating Coil Capacity Information,Coil:Heating:Water,ZONE NORTH PERIMETER SPACE - STORY MID REHEAT COIL,420262.47
 Component Sizing Information, AirTerminal:SingleDuct:VAV:Reheat, ZONE NORTH PERIMETER SPACE - STORY TOP VAV TERMINAL, Design Size Maximum Air Flow Rate [m3/s], 2.02063
 Component Sizing Information, AirTerminal:SingleDuct:VAV:Reheat, ZONE NORTH PERIMETER SPACE - STORY TOP VAV TERMINAL, Design Size Constant Minimum Air Flow Fraction, 0.13604
 Component Sizing Information, AirTerminal:SingleDuct:VAV:Reheat, ZONE NORTH PERIMETER SPACE - STORY TOP VAV TERMINAL, User-Specified Constant Minimum Air Flow Fraction, 0.20000
 Component Sizing Information, AirTerminal:SingleDuct:VAV:Reheat, ZONE NORTH PERIMETER SPACE - STORY TOP VAV TERMINAL, Design Size Minimum Air Flow Rate [m3/s], 0.40413
 Component Sizing Information, AirTerminal:SingleDuct:VAV:Reheat, ZONE NORTH PERIMETER SPACE - STORY TOP VAV TERMINAL, Design Size Maximum Flow Fraction during Reheat [], 0.36277
 Component Sizing Information, AirTerminal:SingleDuct:VAV:Reheat, ZONE NORTH PERIMETER SPACE - STORY TOP VAV TERMINAL, User-Specified Maximum Flow Fraction during Reheat [], 0.50000
 Component Sizing Information, AirTerminal:SingleDuct:VAV:Reheat, ZONE NORTH PERIMETER SPACE - STORY TOP VAV TERMINAL, Design Size Maximum Flow per Zone Floor Area during Reheat [m3/s-m2], 2.80071E-003
 Component Sizing Information, AirTerminal:SingleDuct:VAV:Reheat, ZONE NORTH PERIMETER SPACE - STORY TOP VAV TERMINAL, Design Size Maximum Reheat Water Flow Rate [m3/s], 7.21194E-004
 Component Sizing Information, AirTerminal:SingleDuct:VAV:Reheat, ZONE NORTH PERIMETER SPACE - STORY TOP VAV TERMINAL, Design Size Reheat Coil Sizing Air Volume Flow Rate [m3/s], 1.07660
 Component Sizing Information, AirTerminal:SingleDuct:VAV:Reheat, ZONE NORTH PERIMETER SPACE - STORY TOP VAV TERMINAL, Design Size Reheat Coil Sizing Inlet Air Temperature [C], 12.77778
 Component Sizing Information, AirTerminal:SingleDuct:VAV:Reheat, ZONE NORTH PERIMETER SPACE - STORY TOP VAV TERMINAL, Design Size Reheat Coil Sizing Inlet Air Humidity Ratio [kgWater/kgDryAir], 8.00000E-003
 Component Sizing Information, Coil:Heating:Water, ZONE NORTH PERIMETER SPACE - STORY TOP REHEAT COIL, Design Size Rated Capacity [W], 32972.11000
 Component Sizing Information, Coil:Heating:Water, ZONE NORTH PERIMETER SPACE - STORY TOP REHEAT COIL, Design Size Maximum Water Flow Rate [m3/s], 7.21194E-004
 Component Sizing Information, Coil:Heating:Water, ZONE NORTH PERIMETER SPACE - STORY TOP REHEAT COIL, Design Size U-Factor Times Area Value [W/K], 685.75846
Water Heating Coil Capacity Information,Coil:Heating:Water,ZONE NORTH PERIMETER SPACE - STORY TOP REHEAT COIL,31180.33
 Component Sizing Information, AirTerminal:SingleDuct:ConstantVolume:NoReheat, ZONE SOUTH PERIMETER SPACE - STORY GROUND PSZ-AC DIFFUSER, Design Size Maximum Air Flow Rate [m3/s], 1.14855
 Component Sizing Information, AirTerminal:SingleDuct:VAV:Reheat, ZONE SOUTH PERIMETER SPACE - STORY MID VAV TERMINAL, Design Size Maximum Air Flow Rate [m3/s], 36.54597
 Component Sizing Information, AirTerminal:SingleDuct:VAV:Reheat, ZONE SOUTH PERIMETER SPACE - STORY MID VAV TERMINAL, Design Size Constant Minimum Air Flow Fraction, 0.13539
 Component Sizing Information, AirTerminal:SingleDuct:VAV:Reheat, ZONE SOUTH PERIMETER SPACE - STORY MID VAV TERMINAL, User-Specified Constant Minimum Air Flow Fraction, 0.20000
 Component Sizing Information, AirTerminal:SingleDuct:VAV:Reheat, ZONE SOUTH PERIMETER SPACE - STORY MID VAV TERMINAL, Design Size Minimum Air Flow Rate [m3/s], 7.30919
 Component Sizing Information, AirTerminal:SingleDuct:VAV:Reheat, ZONE SOUTH PERIMETER SPACE - STORY MID VAV TERMINAL, Design Size Maximum Flow Fraction during Reheat [], 0.36103
 Component Sizing Information, AirTerminal:SingleDuct:VAV:Reheat, ZONE SOUTH PERIMETER SPACE - STORY MID VAV TERMINAL, User-Specified Maximum Flow Fraction during Reheat [], 0.50000
 Component Sizing Information, AirTerminal:SingleDuct:VAV:Reheat, ZONE SOUTH PERIMETER SPACE - STORY MID VAV TERMINAL, Design Size Maximum Flow per Zone Floor Area during Reheat [m3/s-m2], 2.81416E-003
 Component Sizing Information, AirTerminal:SingleDuct:VAV:Reheat, ZONE SOUTH PERIMETER SPACE - STORY MID VAV TERMINAL, Design Size Maximum Reheat Water Flow Rate [m3/s], 9.70584E-003
 Component Sizing Information, AirTerminal:SingleDuct:VAV:Reheat, ZONE SOUTH PERIMETER SPACE - STORY MID VAV TERMINAL, Design Size Reheat Coil Sizing Air Volume Flow Rate [m3/s], 14.48022
 Component Sizing Information, AirTerminal:SingleDuct:VAV:Reheat, ZONE SOUTH PERIMETER SPACE - STORY MID VAV TERMINAL, Design Size Reheat Coil Sizing Inlet Air Temperature [C], 12.77778
 Component Sizing Information, AirTerminal:SingleDuct:VAV:Reheat, ZONE SOUTH PERIMETER SPACE - STORY MID VAV TERMINAL, Design Size Reheat Coil Sizing Inlet Air Humidity Ratio [kgWater/kgDryAir], 8.00000E-003
 Component Sizing Information, Coil:Heating:Water, ZONE SOUTH PERIMETER SPACE - STORY MID REHEAT COIL, Design Size Rated Capacity [W], 443739.31217
 Component Sizing Information, Coil:Heating:Water, ZONE SOUTH PERIMETER SPACE - STORY MID REHEAT COIL, Design Size Maximum Water Flow Rate [m3/s], 9.70584E-003
 Component Sizing Information, Coil:Heating:Water, ZONE SOUTH PERIMETER SPACE - STORY MID REHEAT COIL, Design Size U-Factor Times Area Value [W/K], 9230.62444
Water Heating Coil Capacity Information,Coil:Heating:Water,ZONE SOUTH PERIMETER SPACE - STORY MID REHEAT COIL,419625.28
 Component Sizing Information, AirTerminal:SingleDuct:VAV:Reheat, ZONE SOUTH PERIMETER SPACE - STORY TOP VAV TERMINAL, Design Size Maximum Air Flow Rate [m3/s], 2.29664
 Component Sizing Information, AirTerminal:SingleDuct:VAV:Reheat, ZONE SOUTH PERIMETER SPACE - STORY TOP VAV TERMINAL, Design Size Constant Minimum Air Flow Fraction, 0.11969
 Component Sizing Information, AirTerminal:SingleDuct:VAV:Reheat, ZONE SOUTH PERIMETER SPACE - STORY TOP VAV TERMINAL, User-Specified Constant Minimum Air Flow Fraction, 0.20000
 Component Sizing Information, AirTerminal:SingleDuct:VAV:Reheat, ZONE SOUTH PERIMETER SPACE - STORY TOP VAV TERMINAL, Design Size Minimum Air Flow Rate [m3/s], 0.45933
 Component Sizing Information, AirTerminal:SingleDuct:VAV:Reheat, ZONE SOUTH PERIMETER SPACE - STORY TOP VAV TERMINAL, Design Size Maximum Flow Fraction during Reheat [], 0.31917
 Component Sizing Information, AirTerminal:SingleDuct:VAV:Reheat, ZONE SOUTH PERIMETER SPACE - STORY TOP VAV TERMINAL, User-Specified Maximum Flow Fraction during Reheat [], 0.50000
 Component Sizing Information, AirTerminal:SingleDuct:VAV:Reheat, ZONE SOUTH PERIMETER SPACE - STORY TOP VAV TERMINAL, Design Size Maximum Flow per Zone Floor Area during Reheat [m3/s-m2], 3.18328E-003
 Component Sizing Information, AirTerminal:SingleDuct:VAV:Reheat, ZONE SOUTH PERIMETER SPACE - STORY TOP VAV TERMINAL, Design Size Maximum Reheat Water Flow Rate [m3/s], 7.21017E-004
 Component Sizing Information, AirTerminal:SingleDuct:VAV:Reheat, ZONE SOUTH PERIMETER SPACE - STORY TOP VAV TERMINAL, Design Size Reheat Coil Sizing Air Volume Flow Rate [m3/s], 1.07634
 Component Sizing Information, AirTerminal:SingleDuct:VAV:Reheat, ZONE SOUTH PERIMETER SPACE - STORY TOP VAV TERMINAL, Design Size Reheat Coil Sizing Inlet Air Temperature [C], 12.77778
 Component Sizing Information, AirTerminal:SingleDuct:VAV:Reheat, ZONE SOUTH PERIMETER SPACE - STORY TOP VAV TERMINAL, Design Size Reheat Coil Sizing Inlet Air Humidity Ratio [kgWater/kgDryAir], 8.00000E-003
 Component Sizing Information, Coil:Heating:Water, ZONE SOUTH PERIMETER SPACE - STORY TOP REHEAT COIL, Design Size Rated Capacity [W], 32964.01896
[...]
 Warmup Convergence Information,ZONE CORE SPACE - STORY MID,SizingPeriod: TUCSON INTERNATIONAL AP ANN CLG .4% CONDNS DB=>MWB 1 HVAC Sizing Pass 1,4.3298805978E-002,0.1276136511,Pass,Pass,2.4797429071E-002,0.1238555645,Pass,Pass
 Warmup Convergence Information,ZONE CORE SPACE - STORY TOP,SizingPeriod: TUCSON INTERNATIONAL AP ANN CLG .4% CONDNS DB=>MWB 1 HVAC Sizing Pass 1,5.7991086652E-002,0.1656194818,Pass,Pass,3.1492010310E-002,0.1414391090,Pass,Pass
 Warmup Convergence Information,ZONE EAST PERIMETER SPACE - STORY GROUND,SizingPeriod: TUCSON INTERNATIONAL AP ANN CLG .4% CONDNS DB=>MWB 1 HVAC Sizing Pass 1,5.6264524340E-002,0.2230091888,Pass,Pass,2.5134615805,16.5852438756,Pass,Pass
 Warmup Convergence Information,ZONE EAST PERIMETER SPACE - STORY MID,SizingPeriod: TUCSON INTERNATIONAL AP ANN CLG .4% CONDNS DB=>MWB 1 HVAC Sizing Pass 1,4.3309451714E-002,0.1509736853,Pass,Pass,3.3278716274E-002,0.1060484576,Pass,Pass
 Warmup Convergence Information,ZONE EAST PERIMETER SPACE - STORY TOP,SizingPeriod: TUCSON INTERNATIONAL AP ANN CLG .4% CONDNS DB=>MWB 1 HVAC Sizing Pass 1,3.8954994257E-002,0.1282556406,Pass,Pass,3.3184744513E-002,8.3192141610E-002,Pass,Pass
 Warmup Convergence Information,ZONE NORTH PERIMETER SPACE - STORY GROUND,SizingPeriod: TUCSON INTERNATIONAL AP ANN CLG .4% CONDNS DB=>MWB 1 HVAC Sizing Pass 1,5.6658295123E-002,0.2054320616,Pass,Pass,8.2224811692E-002,0.3492459890,Pass,Pass
 Warmup Convergence Information,ZONE NORTH PERIMETER SPACE - STORY MID,SizingPeriod: TUCSON INTERNATIONAL AP ANN CLG .4% CONDNS DB=>MWB 1 HVAC Sizing Pass 1,6.0095109662E-002,0.2014624170,Pass,Pass,4.5008688350E-002,0.2325903415,Pass,Pass
 Warmup Convergence Information,ZONE NORTH PERIMETER SPACE - STORY TOP,SizingPeriod: TUCSON INTERNATIONAL AP ANN CLG .4% CONDNS DB=>MWB 1 HVAC Sizing Pass 1,5.9271915905E-002,0.1979288497,Pass,Pass,4.5944937101E-002,0.1925722202,Pass,Pass
 Warmup Convergence Information,ZONE SOUTH PERIMETER SPACE - STORY GROUND,SizingPeriod: TUCSON INTERNATIONAL AP ANN CLG .4% CONDNS DB=>MWB 1 HVAC Sizing Pass 1,5.6278297648E-002,0.2130863472,Pass,Pass,0.1312910618,0.4256401438,Pass,Pass
 Warmup Convergence Information,ZONE SOUTH PERIMETER SPACE - STORY MID,SizingPeriod: TUCSON INTERNATIONAL AP ANN CLG .4% CONDNS DB=>MWB 1 HVAC Sizing Pass 1,5.4554652911E-002,0.1899513386,Pass,Pass,4.3497502957E-002,0.1961917585,Pass,Pass
 Warmup Convergence Information,ZONE SOUTH PERIMETER SPACE - STORY TOP,SizingPeriod: TUCSON INTERNATIONAL AP ANN CLG .4% CONDNS DB=>MWB 1 HVAC Sizing Pass 1,5.3970401099E-002,0.1810695170,Pass,Pass,4.4009060094E-002,0.1617130479,Pass,Pass
 Warmup Convergence Information,ZONE WEST PERIMETER SPACE - STORY GROUND,SizingPeriod: TUCSON INTERNATIONAL AP ANN CLG .4% CONDNS DB=>MWB 1 HVAC Sizing Pass 1,5.6265045873E-002,0.2311947321,Pass,Pass,0.4830909324,2.9910724462,Pass,Pass
 Warmup Convergence Information,ZONE WEST PERIMETER SPACE - STORY MID,SizingPeriod: TUCSON INTERNATIONAL AP ANN CLG .4% CONDNS DB=>MWB 1 HVAC Sizing Pass 1,4.6222028480E-002,0.1713009153,Pass,Pass,3.7646117942E-002,0.1184553675,Pass,Pass
 Warmup Convergence Information,ZONE WEST PERIMETER SPACE - STORY TOP,SizingPeriod: TUCSON INTERNATIONAL AP ANN CLG .4% CONDNS DB=>MWB 1 HVAC Sizing Pass 1,4.0009672291E-002,0.1404330582,Pass,Pass,3.9441813262E-002,9.2097139508E-002,Pass,Pass
Environment:Design Day Data,31.60,13.80,DefaultMultipliers,Wetbulb,22.50,{C},92332,300,5.0,0.00,No,No
Environment:Design Day Misc,202,1084.4,0.2082,0.1365,1.0,-6.23,20.6,ASHRAETau
Environment:WarmupDays,  5
 Warmup Convergence Information,ZONE CORE SPACE - STORY GROUND,SizingPeriod: TUCSON INTERNATIONAL AP ANN CLG .4% CONDNS WB=>MDB 1 HVAC Sizing Pass 1,2.2243541456E-002,7.2803662601E-002,Pass,Pass,3.9465559788E-002,0.2400551138,Pass,Pass
 Warmup Convergence Information,ZONE CORE SPACE - STORY MID,SizingPeriod: TUCSON INTERNATIONAL AP ANN CLG .4% CONDNS WB=>MDB 1 HVAC Sizing Pass 1,5.1347746726E-002,0.1538112385,Pass,Pass,2.5664464978E-002,0.1216802219,Pass,Pass
 Warmup Convergence Information,ZONE CORE SPACE - STORY TOP,SizingPeriod: TUCSON INTERNATIONAL AP ANN CLG .4% CONDNS WB=>MDB 1 HVAC Sizing Pass 1,4.2803084156E-002,0.1510455014,Pass,Pass,2.3872339679E-002,0.1192067500,Pass,Pass
 Warmup Convergence Information,ZONE EAST PERIMETER SPACE - STORY GROUND,SizingPeriod: TUCSON INTERNATIONAL AP ANN CLG .4% CONDNS WB=>MDB 1 HVAC Sizing Pass 1,5.3753298756E-002,0.1021272688,Pass,Pass,3.8340979849E-002,4.7992726115E-002,Pass,Pass
 Warmup Convergence Information,ZONE EAST PERIMETER SPACE - STORY MID,SizingPeriod: TUCSON INTERNATIONAL AP ANN CLG .4% CONDNS WB=>MDB 1 HVAC Sizing Pass 1,4.1016503928E-002,0.1205754244,Pass,Pass,3.0687306513E-002,6.3905445485E-002,Pass,Pass
 Warmup Convergence Information,ZONE EAST PERIMETER SPACE - STORY TOP,SizingPeriod: TUCSON INTERNATIONAL AP ANN CLG .4% CONDNS WB=>MDB 1 HVAC Sizing Pass 1,4.3117609704E-002,0.1415398171,Pass,Pass,3.1078376313E-002,4.5054105738E-002,Pass,Pass
 Warmup Convergence Information,ZONE NORTH PERIMETER SPACE - STORY GROUND,SizingPeriod: TUCSON INTERNATIONAL AP ANN CLG .4% CONDNS WB=>MDB 1 HVAC Sizing Pass 1,3.5015401410E-002,5.9079477879E-002,Pass,Pass,4.3649590432E-002,0.1191838566,Pass,Pass
 Warmup Convergence Information,ZONE NORTH PERIMETER SPACE - STORY MID,SizingPeriod: TUCSON INTERNATIONAL AP ANN CLG .4% CONDNS WB=>MDB 1 HVAC Sizing Pass 1,3.2121844024E-002,0.1234781611,Pass,Pass,3.4616248389E-002,0.1478228628,Pass,Pass
 Warmup Convergence Information,ZONE NORTH PERIMETER SPACE - STORY TOP,SizingPeriod: TUCSON INTERNATIONAL AP ANN CLG .4% CONDNS WB=>MDB 1 HVAC Sizing Pass 1,2.9341298848E-002,9.8641955888E-002,Pass,Pass,3.3158939053E-002,0.1034509958,Pass,Pass
 Warmup Convergence Information,ZONE SOUTH PERIMETER SPACE - STORY GROUND,SizingPeriod: TUCSON INTERNATIONAL AP ANN CLG .4% CONDNS WB=>MDB 1 HVAC Sizing Pass 1,3.9531513845E-002,6.4912904550E-002,Pass,Pass,4.9992548028E-002,9.3123766332E-002,Pass,Pass
 Warmup Convergence Information,ZONE SOUTH PERIMETER SPACE - STORY MID,SizingPeriod: TUCSON INTERNATIONAL AP ANN CLG .4% CONDNS WB=>MDB 1 HVAC Sizing Pass 1,2.8891874976E-002,0.1171374978,Pass,Pass,3.4501245824E-002,0.1236765067,Pass,Pass
 Warmup Convergence Information,ZONE SOUTH PERIMETER SPACE - STORY TOP,SizingPeriod: TUCSON INTERNATIONAL AP ANN CLG .4% CONDNS WB=>MDB 1 HVAC Sizing Pass 1,2.0006387110E-002,5.2522387787E-002,Pass,Pass,3.1898720308E-002,7.5111965310E-002,Pass,Pass
 Warmup Convergence Information,ZONE WEST PERIMETER SPACE - STORY GROUND,SizingPeriod: TUCSON INTERNATIONAL AP ANN CLG .4% CONDNS WB=>MDB 1 HVAC Sizing Pass 1,5.5324702972E-002,8.5839345827E-002,Pass,Pass,5.8880456273E-002,6.7555419922E-002,Pass,Pass
 Warmup Convergence Information,ZONE WEST PERIMETER SPACE - STORY MID,SizingPeriod: TUCSON INTERNATIONAL AP ANN CLG .4% CONDNS WB=>MDB 1 HVAC Sizing Pass 1,2.8552318930E-002,8.6497160640E-002,Pass,Pass,3.4796100092E-002,7.4312517483E-002,Pass,Pass
 Warmup Convergence Information,ZONE WEST PERIMETER SPACE - STORY TOP,SizingPeriod: TUCSON INTERNATIONAL AP ANN CLG .4% CONDNS WB=>MDB 1 HVAC Sizing Pass 1,2.8871333848E-002,4.8947058642E-002,Pass,Pass,3.7171167337E-002,4.5162223868E-002,Pass,Pass
Environment:Design Day Data,-0.20,0.00,DefaultMultipliers,Wetbulb,-0.20,{C},92332,140,2.5,0.00,No,No
Environment:Design Day Misc,355,1232.8,0.1424,5.7719E-002,1.0,2.45,-23.5,ASHRAEClearSky
Environment:WarmupDays,  4
 Warmup Convergence Information,ZONE CORE SPACE - STORY GROUND,SizingPeriod: TUCSON INTERNATIONAL AP ANN HTG 99.6% CONDNS DB 1 HVAC Sizing Pass 1,4.4685275400E-002,0.1212922973,Pass,Pass,6.4164787911E-002,0.3369839674,Pass,Pass
 Warmup Convergence Information,ZONE CORE SPACE - STORY MID,SizingPeriod: TUCSON INTERNATIONAL AP ANN HTG 99.6% CONDNS DB 1 HVAC Sizing Pass 1,4.5251737218E-002,0.1302111595,Pass,Pass,0.4361552748,2.7561274558,Pass,Pass
 Warmup Convergence Information,ZONE CORE SPACE - STORY TOP,SizingPeriod: TUCSON INTERNATIONAL AP ANN HTG 99.6% CONDNS DB 1 HVAC Sizing Pass 1,8.6466711418E-002,0.2385805184,Pass,Pass,8.9318042531E-002,0.2768026043,Pass,Pass
 Warmup Convergence Information,ZONE EAST PERIMETER SPACE - STORY GROUND,SizingPeriod: TUCSON INTERNATIONAL AP ANN HTG 99.6% CONDNS DB 1 HVAC Sizing Pass 1,9.9849734126E-002,0.3306885776,Pass,Pass,0.9033916614,6.3940383690,Pass,Pass
 Warmup Convergence Information,ZONE EAST PERIMETER SPACE - STORY MID,SizingPeriod: TUCSON INTERNATIONAL AP ANN HTG 99.6% CONDNS DB 1 HVAC Sizing Pass 1,0.1099060809,0.3656593768,Pass,Pass,0.1731076264,0.7429545482,Pass,Pass
 Warmup Convergence Information,ZONE EAST PERIMETER SPACE - STORY TOP,SizingPeriod: TUCSON INTERNATIONAL AP ANN HTG 99.6% CONDNS DB 1 HVAC Sizing Pass 1,0.1142450526,0.4003554826,Pass,Pass,0.2000141907,0.9494867645,Pass,Pass
 Warmup Convergence Information,ZONE NORTH PERIMETER SPACE - STORY GROUND,SizingPeriod: TUCSON INTERNATIONAL AP ANN HTG 99.6% CONDNS DB 1 HVAC Sizing Pass 1,0.1094208981,0.3616282970,Pass,Pass,0.1184756607,0.5163716596,Pass,Pass
 Warmup Convergence Information,ZONE NORTH PERIMETER SPACE - STORY MID,SizingPeriod: TUCSON INTERNATIONAL AP ANN HTG 99.6% CONDNS DB 1 HVAC Sizing Pass 1,0.1068084588,0.3337107663,Pass,Pass,0.1983555873,1.0628737414,Pass,Pass
 Warmup Convergence Information,ZONE NORTH PERIMETER SPACE - STORY TOP,SizingPeriod: TUCSON INTERNATIONAL AP ANN HTG 99.6% CONDNS DB 1 HVAC Sizing Pass 1,0.1139232030,0.3696566283,Pass,Pass,0.2465140044,1.5139424470,Pass,Pass
 Warmup Convergence Information,ZONE SOUTH PERIMETER SPACE - STORY GROUND,SizingPeriod: TUCSON INTERNATIONAL AP ANN HTG 99.6% CONDNS DB 1 HVAC Sizing Pass 1,0.1101153302,0.3642641656,Pass,Pass,0.1194798179,0.5578166547,Pass,Pass
 Warmup Convergence Information,ZONE SOUTH PERIMETER SPACE - STORY MID,SizingPeriod: TUCSON INTERNATIONAL AP ANN HTG 99.6% CONDNS DB 1 HVAC Sizing Pass 1,0.1070078793,0.3414201493,Pass,Pass,0.1880566633,0.9530735041,Pass,Pass
 Warmup Convergence Information,ZONE SOUTH PERIMETER SPACE - STORY TOP,SizingPeriod: TUCSON INTERNATIONAL AP ANN HTG 99.6% CONDNS DB 1 HVAC Sizing Pass 1,0.1139523637,0.3780275469,Pass,Pass,0.2320590637,1.3486243602,Pass,Pass
 Warmup Convergence Information,ZONE WEST PERIMETER SPACE - STORY GROUND,SizingPeriod: TUCSON INTERNATIONAL AP ANN HTG 99.6% CONDNS DB 1 HVAC Sizing Pass 1,9.7743346738E-002,0.3238781602,Pass,Pass,1.8097688065,14.7540014711,Pass,Pass
 Warmup Convergence Information,ZONE WEST PERIMETER SPACE - STORY MID,SizingPeriod: TUCSON INTERNATIONAL AP ANN HTG 99.6% CONDNS DB 1 HVAC Sizing Pass 1,0.1101357988,0.3666704092,Pass,Pass,0.1723527256,0.7353412357,Pass,Pass
 Warmup Convergence Information,ZONE WEST PERIMETER SPACE - STORY TOP,SizingPeriod: TUCSON INTERNATIONAL AP ANN HTG 99.6% CONDNS DB 1 HVAC Sizing Pass 1,0.1141898086,0.4023195844,Pass,Pass,0.1972540435,0.9104451722,Pass,Pass
! <Plant Coincident Sizing Algorithm>,Plant Loop Name,Sizing Pass {#},Measured Mass Flow{kg/s},Measured Demand {W},Demand Calculated Mass Flow{kg/s},Sizes Changed {Yes/No},Previous Volume Flow Rate {m3/s},New Volume Flow Rate {m3/s},Demand Check Applied {Yes/No},Sizing Factor {},Normalized Change {},Specific Heat{J/kg-K},Density {kg/m3}
Plant Coincident Sizing Algorithm,CONDENSER WATER LOOP,1,291.5886848,7083082.69,303.7103726,Yes,0.291618,0.349303,Yes,1.1500,0.197807,4197.9300,999.8980
Environment:Design Day Data,41.10,13.80,DefaultMultipliers,Wetbulb,19.00,{C},92332,300,5.0,0.00,No,No
Environment:Design Day Misc,202,1084.4,0.2082,0.1365,1.0,-6.23,20.6,ASHRAETau
 Component Sizing Information, PlantLoop, CHILLED WATER LOOP, Maximum Loop Flow Rate [m3/s], 0.24441
 Component Sizing Information, PlantLoop, CHILLED WATER LOOP, Plant Loop Volume [m3], 29.32937
 Component Sizing Information, PlantLoop, CONDENSER WATER LOOP, Maximum Loop Flow Rate [m3/s], 0.34930
 Component Sizing Information, PlantLoop, CONDENSER WATER LOOP, Plant Loop Volume [m3], 41.91631
 Component Sizing Information, PlantLoop, HOT WATER LOOP, Maximum Loop Flow Rate [m3/s], 7.20249E-002
 Component Sizing Information, PlantLoop, HOT WATER LOOP, Plant Loop Volume [m3], 8.64298
 Component Sizing Information, PlantLoop, OFFICE SHARED SERVICE WATER LOOP, Maximum Loop Flow Rate [m3/s], 9.99975E-004
 Component Sizing Information, PlantLoop, OFFICE SHARED SERVICE WATER LOOP, Plant Loop Volume [m3], 0.12000
 Component Sizing Information, Pump:VariableSpeed, CHILLED WATER LOOP SECONDARY PUMP, Design Flow Rate [m3/s], 0.24441
 Component Sizing Information, Pump:VariableSpeed, CHILLED WATER LOOP SECONDARY PUMP, Design Power Consumption [W], 44366.12252
 Component Sizing Information, Chiller:Electric:EIR, 90.1-2010 WATERCOOLED  ROTARY SCREW CHILLER 0 1574TONS 0.6KW/TON, Design Size Reference Chilled Water Flow Rate [m3/s], 0.24441
 Component Sizing Information, Chiller:Electric:EIR, 90.1-2010 WATERCOOLED  ROTARY SCREW CHILLER 0 1574TONS 0.6KW/TON, Design Size Reference Capacity [W], 5756536.87577
 Component Sizing Information, Chiller:Electric:EIR, 90.1-2010 WATERCOOLED  ROTARY SCREW CHILLER 0 1574TONS 0.6KW/TON, Design Size Reference Condenser Fluid Flow Rate [m3/s], 0.29162
! <Chiller Standard Rating Information>, Component Type, Component Name, IPLV in SI Units {W/W}, IPLV in IP Units {Btu/W-h}
 Chiller Standard Rating Information, Chiller:Electric:EIR, 90.1-2010 WATERCOOLED  ROTARY SCREW CHILLER 0 1574TONS 0.6KW/TON, 8.21, 28.03
 Component Sizing Information, Pump:ConstantSpeed, CHILLED WATER LOOP PRIMARY PUMP, Design Flow Rate [m3/s], 0.24441
 Component Sizing Information, Pump:ConstantSpeed, CHILLED WATER LOOP PRIMARY PUMP, Design Power Consumption [W], 15106.74423
 Component Sizing Information, CoolingTower:VariableSpeed, PROPELLER OR AXIAL VARIABLE SPEED FAN OPEN COOLING TOWER 38.2 GPM/HP, Design Water Flow Rate [m3/s], 0.34930
 Component Sizing Information, CoolingTower:VariableSpeed, PROPELLER OR AXIAL VARIABLE SPEED FAN OPEN COOLING TOWER 38.2 GPM/HP, Design Air Flow Rate [m3/s], 273.10570
 Component Sizing Information, CoolingTower:VariableSpeed, PROPELLER OR AXIAL VARIABLE SPEED FAN OPEN COOLING TOWER 38.2 GPM/HP, Nominal Capacity [W], 8066517.26863
 Component Sizing Information, CoolingTower:VariableSpeed, PROPELLER OR AXIAL VARIABLE SPEED FAN OPEN COOLING TOWER 38.2 GPM/HP, Air Flow Rate in free convection regime [m3/s], 54.62114
 Component Sizing Information, CoolingTower:VariableSpeed, PROPELLER OR AXIAL VARIABLE SPEED FAN OPEN COOLING TOWER 38.2 GPM/HP, Tower capacity in free convection regime at design conditions [W], 1008314.65858
 Component Sizing Information, Pump:ConstantSpeed, CONDENSER WATER LOOP CONSTANT PUMP, Design Flow Rate [m3/s], 0.34930
 Component Sizing Information, Pump:ConstantSpeed, CONDENSER WATER LOOP CONSTANT PUMP, Design Power Consumption [W], 69735.00155
 Component Sizing Information, Boiler:HotWater, BOILER 12277KBTU/HR 0.8 THERMAL EFF, Design Size Nominal Capacity [W], 3292890.10539
 Component Sizing Information, Boiler:HotWater, BOILER 12277KBTU/HR 0.8 THERMAL EFF, Design Size Design Water Flow Rate [m3/s], 7.20249E-002
 Component Sizing Information, Pump:VariableSpeed, HOT WATER LOOP PUMP, Design Flow Rate [m3/s], 7.20249E-002
 Component Sizing Information, Pump:VariableSpeed, HOT WATER LOOP PUMP, Design Power Consumption [W], 17692.89302
 Component Sizing Information, WaterHeater:Mixed, 569GAL NATURALGAS WATER HEATER - 569KBTU/HR 0.803 THERM EFF, Use Side Design Flow Rate [m3/s], 9.99975E-004
 Component Sizing Information, Pump:ConstantSpeed, OFFICE SHARED SERVICE WATER LOOP CIRCULATOR PUMP, Design Flow Rate [m3/s], 9.99975E-004
 Component Sizing Information, Pump:ConstantSpeed, OFFICE SHARED SERVICE WATER LOOP CIRCULATOR PUMP, Design Power Consumption [W], 44.81920
Environment:Design Day Data,31.60,13.80,DefaultMultipliers,Wetbulb,22.50,{C},92332,300,5.0,0.00,No,No
Environment:Design Day Misc,202,1084.4,0.2082,0.1365,1.0,-6.23,20.6,ASHRAETau
Environment:Design Day Data,-0.20,0.00,DefaultMultipliers,Wetbulb,-0.20,{C},92332,140,2.5,0.00,No,No
Environment:Design Day Misc,355,1232.8,0.1424,5.7719E-002,1.0,2.45,-23.5,ASHRAEClearSky
Environment,RUN PERIOD 1,WeatherFileRunPeriod,08/03/2009,08/07/2009,Monday,5,Use RunPeriod Specified Day,No,No,No,Yes,Yes,Clark and Allen
Environment:Design Day Data,41.10,13.80,DefaultMultipliers,Wetbulb,19.00,{C},92332,300,5.0,0.00,No,No
Environment:Design Day Misc,202,1084.4,0.2082,0.1365,1.0,-6.23,20.6,ASHRAETau
Environment:Design Day Data,31.60,13.80,DefaultMultipliers,Wetbulb,22.50,{C},92332,300,5.0,0.00,No,No
Environment:Design Day Misc,202,1084.4,0.2082,0.1365,1.0,-6.23,20.6,ASHRAETau
Environment:Design Day Data,-0.20,0.00,DefaultMultipliers,Wetbulb,-0.20,{C},92332,140,2.5,0.00,No,No
Environment:Design Day Misc,355,1232.8,0.1424,5.7719E-002,1.0,2.45,-23.5,ASHRAEClearSky
Environment,RUN PERIOD 1,WeatherFileRunPeriod,08/03/2009,08/07/2009,Monday,5,Use RunPeriod Specified Day,No,No,No,Yes,Yes,Clark and Allen
Environment:Daylight Saving,Yes,InputFile,03/08,11/01
Environment:WarmupDays,  5
 Warmup Convergence Information,ZONE CORE SPACE - STORY GROUND,RunPeriod: RUN PERIOD 1,4.4928665897E-002,7.2185156138E-002,Pass,Pass,1.3414807887E-002,0.1020481956,Pass,Pass
 Warmup Convergence Information,ZONE CORE SPACE - STORY MID,RunPeriod: RUN PERIOD 1,0.2644883799,0.3032128459,Pass,Pass,0.3699931185,0.4694432615,Pass,Pass
 Warmup Convergence Information,ZONE CORE SPACE - STORY TOP,RunPeriod: RUN PERIOD 1,0.2793092604,0.3373413445,Pass,Pass,0.3791088470,0.4826068859,Pass,Pass
 Warmup Convergence Information,ZONE EAST PERIMETER SPACE - STORY GROUND,RunPeriod: RUN PERIOD 1,0.1257891991,0.2565094792,Pass,Pass,0.2367709914,0.4619470814,Pass,Pass
 Warmup Convergence Information,ZONE EAST PERIMETER SPACE - STORY MID,RunPeriod: RUN PERIOD 1,0.5497398055,0.7335125411,Pass,Pass,0.3888942226,0.4918407416,Pass,Pass
 Warmup Convergence Information,ZONE EAST PERIMETER SPACE - STORY TOP,RunPeriod: RUN PERIOD 1,0.5389664273,0.7253993028,Pass,Pass,0.3896468565,0.4868294322,Pass,Pass
 Warmup Convergence Information,ZONE NORTH PERIMETER SPACE - STORY GROUND,RunPeriod: RUN PERIOD 1,7.9599617715E-002,0.1662542026,Pass,Pass,0.1906340208,0.5091912079,Pass,Pass
 Warmup Convergence Information,ZONE NORTH PERIMETER SPACE - STORY MID,RunPeriod: RUN PERIOD 1,0.4479708518,0.5843601350,Pass,Pass,0.3964042124,0.5240825075,Pass,Pass
 Warmup Convergence Information,ZONE NORTH PERIMETER SPACE - STORY TOP,RunPeriod: RUN PERIOD 1,0.4415869167,0.6227328143,Pass,Pass,0.3934504883,0.5105380305,Pass,Pass
 Warmup Convergence Information,ZONE SOUTH PERIMETER SPACE - STORY GROUND,RunPeriod: RUN PERIOD 1,9.1787719016E-002,0.1886350775,Pass,Pass,0.2010484444,0.4429457421,Pass,Pass
 Warmup Convergence Information,ZONE SOUTH PERIMETER SPACE - STORY MID,RunPeriod: RUN PERIOD 1,0.4787589912,0.6170359662,Pass,Pass,0.3992818810,0.5212237422,Pass,Pass
 Warmup Convergence Information,ZONE SOUTH PERIMETER SPACE - STORY TOP,RunPeriod: RUN PERIOD 1,0.4641941517,0.6414365690,Pass,Pass,0.3969909697,0.5100634246,Pass,Pass
 Warmup Convergence Information,ZONE WEST PERIMETER SPACE - STORY GROUND,RunPeriod: RUN PERIOD 1,0.2747112394,0.5573873889,Pass,Pass,0.3083094352,0.5038152876,Pass,Pass
 Warmup Convergence Information,ZONE WEST PERIMETER SPACE - STORY MID,RunPeriod: RUN PERIOD 1,0.7629659443,1.0492012909,Pass,Pass,0.4005777360,0.5195520333,Pass,Pass
 Warmup Convergence Information,ZONE WEST PERIMETER SPACE - STORY TOP,RunPeriod: RUN PERIOD 1,0.7386122573,1.1064576411,Pass,Pass,0.3989752227,0.5094410455,Pass,Pass
! <Program Control Information:Threads/Parallel Sims>, Threading Supported,Maximum Number of Threads, Env Set Threads (OMP_NUM_THREADS), EP Env Set Threads (EP_OMP_NUM_THREADS), IDF Set Threads, Number of Threads Used (Interior Radiant Exchange), Number Nominal Surfaces, Number Parallel Sims
Program Control:Threads/Parallel Sims, No,1, N/A, N/A, N/A, N/A, N/A, N/A
End of Data
