Program Version,EnergyPlus, Version 9.4.0-998c4b761e, YMD=2022.04.20 08:19
! This file shows details about the branches, nodes, and other
! elements of the flow connections.
! This file is intended for use in "debugging" potential problems
! that may also be detected by the program, but may be more easily
! identified by "eye".
! This file is also intended to support software which draws a
! schematic diagram of the HVAC system.
! ===============================================================
! #Nodes,<Number of Unique Nodes>
 #Nodes,244
! <Node>,<NodeNumber>,<Node Name>,<Node Fluid Type>,<# Times Node Referenced After Definition>
 Node,1,ZONE CORE SPACE - STORY GROUND VAV TERMINAL OUTLET AIR NODE,Air,4
 Node,2,ZONE CORE SPACE - STORY GROUND RETURN AIR NODE,Air,2
 Node,3,ZONE CORE SPACE - STORY MID VAV TERMINAL OUTLET AIR NODE,Air,4
 Node,4,ZONE CORE SPACE - STORY MID RETURN AIR NODE,Air,2
 Node,5,ZONE CORE SPACE - STORY TOP VAV TERMINAL OUTLET AIR NODE,Air,4
 Node,6,ZONE CORE SPACE - STORY TOP RETURN AIR NODE,Air,2
 Node,7,ZONE EAST PERIMETER SPACE - STORY GROUND PSZ-AC DIFFUSER OUTLET AIR NODE,Air,4
 Node,8,ZONE EAST PERIMETER SPACE - STORY GROUND RETURN AIR NODE,Air,2
 Node,9,ZONE EAST PERIMETER SPACE - STORY MID VAV TERMINAL OUTLET AIR NODE,Air,4
 Node,10,ZONE EAST PERIMETER SPACE - STORY MID RETURN AIR NODE,Air,2
 Node,11,ZONE EAST PERIMETER SPACE - STORY TOP VAV TERMINAL OUTLET AIR NODE,Air,4
 Node,12,ZONE EAST PERIMETER SPACE - STORY TOP RETURN AIR NODE,Air,2
 Node,13,ZONE NORTH PERIMETER SPACE - STORY GROUND PSZ-AC DIFFUSER OUTLET AIR NODE,Air,4
 Node,14,ZONE NORTH PERIMETER SPACE - STORY GROUND RETURN AIR NODE,Air,2
 Node,15,ZONE NORTH PERIMETER SPACE - STORY MID VAV TERMINAL OUTLET AIR NODE,Air,4
 Node,16,ZONE NORTH PERIMETER SPACE - STORY MID RETURN AIR NODE,Air,2
 Node,17,ZONE NORTH PERIMETER SPACE - STORY TOP VAV TERMINAL OUTLET AIR NODE,Air,4
 Node,18,ZONE NORTH PERIMETER SPACE - STORY TOP RETURN AIR NODE,Air,2
 Node,19,ZONE SOUTH PERIMETER SPACE - STORY GROUND PSZ-AC DIFFUSER OUTLET AIR NODE,Air,4
 Node,20,ZONE SOUTH PERIMETER SPACE - STORY GROUND RETURN AIR NODE,Air,2
 Node,21,ZONE SOUTH PERIMETER SPACE - STORY MID VAV TERMINAL OUTLET AIR NODE,Air,4
 Node,22,ZONE SOUTH PERIMETER SPACE - STORY MID RETURN AIR NODE,Air,2
 Node,23,ZONE SOUTH PERIMETER SPACE - STORY TOP VAV TERMINAL OUTLET AIR NODE,Air,4
 Node,24,ZONE SOUTH PERIMETER SPACE - STORY TOP RETURN AIR NODE,Air,2
 Node,25,ZONE WEST PERIMETER SPACE - STORY GROUND PSZ-AC DIFFUSER OUTLET AIR NODE,Air,4
 Node,26,ZONE WEST PERIMETER SPACE - STORY GROUND RETURN AIR NODE,Air,2
 Node,27,ZONE WEST PERIMETER SPACE - STORY MID VAV TERMINAL OUTLET AIR NODE,Air,4
 Node,28,ZONE WEST PERIMETER SPACE - STORY MID RETURN AIR NODE,Air,2
 Node,29,ZONE WEST PERIMETER SPACE - STORY TOP VAV TERMINAL OUTLET AIR NODE,Air,4
 Node,30,ZONE WEST PERIMETER SPACE - STORY TOP RETURN AIR NODE,Air,2
 Node,31,1 ZONE VAV SUPPLY OUTLET NODE,Air,10
 Node,32,1 ZONE VAV DEMAND INLET NODE,Air,3
 Node,33,5 ZONE VAV SUPPLY OUTLET NODE,Air,10
 Node,34,5 ZONE VAV DEMAND INLET NODE,Air,3
 Node,35,5 ZONE VAV 1 SUPPLY OUTLET NODE,Air,10
 Node,36,5 ZONE VAV 1 DEMAND INLET NODE,Air,3
 Node,37,ZONE EAST PERIMETER SPACE - STORY GROUND PSZ-AC SUPPLY OUTLET NODE,Air,12
 Node,38,ZONE EAST PERIMETER SPACE - STORY GROUND PSZ-AC DEMAND INLET NODE,Air,3
 Node,39,ZONE NORTH PERIMETER SPACE - STORY GROUND PSZ-AC SUPPLY OUTLET NODE,Air,12
 Node,40,ZONE NORTH PERIMETER SPACE - STORY GROUND PSZ-AC DEMAND INLET NODE,Air,3
 Node,41,ZONE SOUTH PERIMETER SPACE - STORY GROUND PSZ-AC SUPPLY OUTLET NODE,Air,12
 Node,42,ZONE SOUTH PERIMETER SPACE - STORY GROUND PSZ-AC DEMAND INLET NODE,Air,3
 Node,43,ZONE WEST PERIMETER SPACE - STORY GROUND PSZ-AC SUPPLY OUTLET NODE,Air,12
 Node,44,ZONE WEST PERIMETER SPACE - STORY GROUND PSZ-AC DEMAND INLET NODE,Air,3
 Node,45,1 ZONE VAV SUPPLY INLET NODE,Air,3
 Node,46,1 ZONE VAV MIXED AIR NODE,Air,5
 Node,47,1 ZONE VAV CLG COIL OUTLET AIR NODE,Air,5
 Node,48,1 ZONE VAV MAIN HTG COIL OUTLET AIR NODE,Air,8
 Node,49,5 ZONE VAV SUPPLY INLET NODE,Air,4
 Node,50,5 ZONE VAV MIXED AIR NODE,Air,7
 Node,51,5 ZONE VAV CLG COIL OUTLET AIR NODE,Air,5
 Node,52,5 ZONE VAV MAIN HTG COIL OUTLET AIR NODE,Air,8
 Node,53,5 ZONE VAV 1 SUPPLY INLET NODE,Air,3
 Node,54,5 ZONE VAV 1 MIXED AIR NODE,Air,5
 Node,55,5 ZONE VAV 1 CLG COIL OUTLET AIR NODE,Air,5
 Node,56,5 ZONE VAV 1 MAIN HTG COIL OUTLET AIR NODE,Air,8
 Node,57,ZONE EAST PERIMETER SPACE - STORY GROUND PSZ-AC SUPPLY INLET NODE,Air,3
 Node,58,ZONE EAST PERIMETER SPACE - STORY GROUND PSZ-AC MIXED AIR NODE,Air,6
 Node,59,ZONE EAST PERIMETER SPACE - STORY GROUND PSZ-AC 1SPD DX AC CLG COIL OUTLET AIR NODE,Air,6
 Node,60,ZONE EAST PERIMETER SPACE - STORY GROUND PSZ-AC GAS HTG COIL OUTLET AIR NODE,Air,5
 Node,61,ZONE EAST PERIMETER SPACE - STORY GROUND PSZ-AC ELECTRIC BACKUP HTG COIL OUTLET AIR NODE,Air,9
 Node,62,ZONE NORTH PERIMETER SPACE - STORY GROUND PSZ-AC SUPPLY INLET NODE,Air,3
 Node,63,ZONE NORTH PERIMETER SPACE - STORY GROUND PSZ-AC MIXED AIR NODE,Air,6
 Node,64,ZONE NORTH PERIMETER SPACE - STORY GROUND PSZ-AC 1SPD DX AC CLG COIL OUTLET AIR NODE,Air,6
 Node,65,ZONE NORTH PERIMETER SPACE - STORY GROUND PSZ-AC GAS HTG COIL OUTLET AIR NODE,Air,5
 Node,66,ZONE NORTH PERIMETER SPACE - STORY GROUND PSZ-AC ELECTRIC BACKUP HTG COIL OUTLET AIR NODE,Air,9
 Node,67,ZONE SOUTH PERIMETER SPACE - STORY GROUND PSZ-AC SUPPLY INLET NODE,Air,3
 Node,68,ZONE SOUTH PERIMETER SPACE - STORY GROUND PSZ-AC MIXED AIR NODE,Air,6
 Node,69,ZONE SOUTH PERIMETER SPACE - STORY GROUND PSZ-AC 1SPD DX AC CLG COIL OUTLET AIR NODE,Air,6
 Node,70,ZONE SOUTH PERIMETER SPACE - STORY GROUND PSZ-AC GAS HTG COIL OUTLET AIR NODE,Air,5
 Node,71,ZONE SOUTH PERIMETER SPACE - STORY GROUND PSZ-AC ELECTRIC BACKUP HTG COIL OUTLET AIR NODE,Air,9
 Node,72,ZONE WEST PERIMETER SPACE - STORY GROUND PSZ-AC SUPPLY INLET NODE,Air,3
 Node,73,ZONE WEST PERIMETER SPACE - STORY GROUND PSZ-AC MIXED AIR NODE,Air,6
 Node,74,ZONE WEST PERIMETER SPACE - STORY GROUND PSZ-AC 1SPD DX AC CLG COIL OUTLET AIR NODE,Air,6
 Node,75,ZONE WEST PERIMETER SPACE - STORY GROUND PSZ-AC GAS HTG COIL OUTLET AIR NODE,Air,5
 Node,76,ZONE WEST PERIMETER SPACE - STORY GROUND PSZ-AC ELECTRIC BACKUP HTG COIL OUTLET AIR NODE,Air,9
 Node,77,CHILLED WATER LOOP SUPPLY INLET NODE,Water,2
 Node,78,CHILLED WATER LOOP PRIMARY PUMP OUTLET WATER NODE,Water,1
 Node,79,90.1-2010 WATERCOOLED  ROTARY SCREW CHILLER 0 SUPPLY INLET WATER NODE,Water,1
 Node,80,90.1-2010 WATERCOOLED  ROTARY SCREW CHILLER 0 SUPPLY OUTLET WATER NODE,Water,1
 Node,81,CHILLED WATER LOOP CHILLER BYPASS INLET WATER NODE,Water,1
 Node,82,CHILLED WATER LOOP CHILLER BYPASS OUTLET WATER NODE,Water,1
 Node,83,CHILLED WATER LOOP SUPPLY OUTLET INLET WATER NODE,Water,1
 Node,84,CHILLED WATER LOOP SUPPLY OUTLET NODE,Water,4
 Node,85,CHILLED WATER LOOP DEMAND INLET NODE,Water,2
 Node,86,CHILLED WATER LOOP SECONDARY PUMP INLET WATER NODE,Water,3
 Node,87,CHILLED WATER LOOP SECONDARY PUMP OUTLET WATER NODE,Water,1
 Node,88,CHILLED WATER LOOP COIL BYPASS INLET WATER NODE,Water,1
 Node,89,CHILLED WATER LOOP COIL BYPASS OUTLET WATER NODE,Water,1
 Node,90,1 ZONE VAV CLG COIL INLET WATER NODE,Water,2
 Node,91,1 ZONE VAV CLG COIL OUTLET WATER NODE,Water,1
 Node,92,5 ZONE VAV CLG COIL INLET WATER NODE,Water,2
 Node,93,5 ZONE VAV CLG COIL OUTLET WATER NODE,Water,1
 Node,94,5 ZONE VAV 1 CLG COIL INLET WATER NODE,Water,2
 Node,95,5 ZONE VAV 1 CLG COIL OUTLET WATER NODE,Water,1
 Node,96,CHILLED WATER LOOP DEMAND BYPASS PIPE INLET NODE,Water,1
 Node,97,CHILLED WATER LOOP DEMAND BYPASS PIPE OUTLET NODE,Water,1
 Node,98,CHILLED WATER LOOP DEMAND OUTLET INLET WATER NODE,Water,1
 Node,99,CHILLED WATER LOOP DEMAND OUTLET NODE,Water,2
 Node,100,CONDENSER WATER LOOP SUPPLY INLET NODE,Water,2
 Node,101,CONDENSER WATER LOOP CONSTANT PUMP OUTLET WATER NODE,Water,1
 Node,102,PROPELLER OR AXIAL VARIABLE SPEED FAN OPEN COOLING TOWER INLET WATER NODE,Water,1
 Node,103,PROPELLER OR AXIAL VARIABLE SPEED FAN OPEN COOLING TOWER OUTLET WATER NODE,Water,1
 Node,104,CONDENSER WATER LOOP COOLING TOWER BYPASS INLET WATER NODE,Water,1
 Node,105,CONDENSER WATER LOOP COOLING TOWER BYPASS OUTLET WATER NODE,Water,1
 Node,106,CONDENSER WATER LOOP SUPPLY OUTLET INLET WATER NODE,Water,1
 Node,107,CONDENSER WATER LOOP SUPPLY OUTLET NODE,Water,4
 Node,108,CONDENSER WATER LOOP DEMAND INLET NODE,Water,2
 Node,109,CONDENSER WATER LOOP DEMAND INLET OUTLET WATER NODE,Water,1
 Node,110,CONDENSER WATER LOOP CHILLER BYPASS INLET WATER NODE,Water,1
 Node,111,CONDENSER WATER LOOP CHILLER BYPASS OUTLET WATER NODE,Water,1
 Node,112,90.1-2010 WATERCOOLED  ROTARY SCREW CHILLER 0 DEMAND INLET WATER NODE,Water,1
 Node,113,90.1-2010 WATERCOOLED  ROTARY SCREW CHILLER 0 DEMAND OUTLET WATER NODE,Water,1
 Node,114,CONDENSER WATER LOOP DEMAND BYPASS PIPE INLET NODE,Water,1
 Node,115,CONDENSER WATER LOOP DEMAND BYPASS PIPE OUTLET NODE,Water,1
 Node,116,CONDENSER WATER LOOP DEMAND OUTLET INLET WATER NODE,Water,1
 Node,117,CONDENSER WATER LOOP DEMAND OUTLET NODE,Water,2
 Node,118,HOT WATER LOOP SUPPLY INLET NODE,Water,2
 Node,119,HOT WATER LOOP PUMP OUTLET WATER NODE,Water,1
 Node,120,BOILER INLET WATER NODE,Water,1
 Node,121,BOILER OUTLET WATER NODE,Water,1
 Node,122,HOT WATER LOOP SUPPLY EQUIPMENT BYPASS INLET WATER NODE,Water,1
 Node,123,HOT WATER LOOP SUPPLY EQUIPMENT BYPASS OUTLET WATER NODE,Water,1
 Node,124,HOT WATER LOOP SUPPLY OUTLET INLET WATER NODE,Water,1
 Node,125,HOT WATER LOOP SUPPLY OUTLET NODE,Water,4
 Node,126,HOT WATER LOOP DEMAND INLET NODE,Water,2
 Node,127,HOT WATER LOOP DEMAND INLET OUTLET WATER NODE,Water,1
 Node,128,HOT WATER LOOP COIL BYPASS INLET WATER NODE,Water,1
 Node,129,HOT WATER LOOP COIL BYPASS OUTLET WATER NODE,Water,1
 Node,130,1 ZONE VAV MAIN HTG COIL INLET WATER NODE,Water,2
 Node,131,1 ZONE VAV MAIN HTG COIL OUTLET WATER NODE,Water,1
 Node,132,ZONE CORE SPACE - STORY GROUND REHEAT COIL INLET WATER NODE,Water,1
 Node,133,ZONE CORE SPACE - STORY GROUND REHEAT COIL OUTLET WATER NODE,Water,1
 Node,134,5 ZONE VAV MAIN HTG COIL INLET WATER NODE,Water,2
 Node,135,5 ZONE VAV MAIN HTG COIL OUTLET WATER NODE,Water,1
 Node,136,ZONE NORTH PERIMETER SPACE - STORY MID REHEAT COIL INLET WATER NODE,Water,1
 Node,137,ZONE NORTH PERIMETER SPACE - STORY MID REHEAT COIL OUTLET WATER NODE,Water,1
 Node,138,ZONE SOUTH PERIMETER SPACE - STORY MID REHEAT COIL INLET WATER NODE,Water,1
 Node,139,ZONE SOUTH PERIMETER SPACE - STORY MID REHEAT COIL OUTLET WATER NODE,Water,1
 Node,140,ZONE WEST PERIMETER SPACE - STORY MID REHEAT COIL INLET WATER NODE,Water,1
 Node,141,ZONE WEST PERIMETER SPACE - STORY MID REHEAT COIL OUTLET WATER NODE,Water,1
 Node,142,ZONE CORE SPACE - STORY MID REHEAT COIL INLET WATER NODE,Water,1
 Node,143,ZONE CORE SPACE - STORY MID REHEAT COIL OUTLET WATER NODE,Water,1
 Node,144,ZONE EAST PERIMETER SPACE - STORY MID REHEAT COIL INLET WATER NODE,Water,1
 Node,145,ZONE EAST PERIMETER SPACE - STORY MID REHEAT COIL OUTLET WATER NODE,Water,1
 Node,146,5 ZONE VAV 1 MAIN HTG COIL INLET WATER NODE,Water,2
 Node,147,5 ZONE VAV 1 MAIN HTG COIL OUTLET WATER NODE,Water,1
 Node,148,ZONE NORTH PERIMETER SPACE - STORY TOP REHEAT COIL INLET WATER NODE,Water,1
 Node,149,ZONE NORTH PERIMETER SPACE - STORY TOP REHEAT COIL OUTLET WATER NODE,Water,1
 Node,150,ZONE SOUTH PERIMETER SPACE - STORY TOP REHEAT COIL INLET WATER NODE,Water,1
 Node,151,ZONE SOUTH PERIMETER SPACE - STORY TOP REHEAT COIL OUTLET WATER NODE,Water,1
 Node,152,ZONE WEST PERIMETER SPACE - STORY TOP REHEAT COIL INLET WATER NODE,Water,1
 Node,153,ZONE WEST PERIMETER SPACE - STORY TOP REHEAT COIL OUTLET WATER NODE,Water,1
 Node,154,ZONE CORE SPACE - STORY TOP REHEAT COIL INLET WATER NODE,Water,1
 Node,155,ZONE CORE SPACE - STORY TOP REHEAT COIL OUTLET WATER NODE,Water,1
 Node,156,ZONE EAST PERIMETER SPACE - STORY TOP REHEAT COIL INLET WATER NODE,Water,1
 Node,157,ZONE EAST PERIMETER SPACE - STORY TOP REHEAT COIL OUTLET WATER NODE,Water,1
 Node,158,HOT WATER LOOP DEMAND BYPASS PIPE INLET NODE,Water,1
 Node,159,HOT WATER LOOP DEMAND BYPASS PIPE OUTLET NODE,Water,1
 Node,160,HOT WATER LOOP DEMAND OUTLET INLET WATER NODE,Water,1
 Node,161,HOT WATER LOOP DEMAND OUTLET NODE,Water,2
 Node,162,OFFICE SHARED SERVICE WATER LOOP SUPPLY INLET NODE,Water,2
 Node,163,OFFICE SHARED SERVICE WATER LOOP CIRCULATOR PUMP OUTLET WATER NODE,Water,1
 Node,164,569GAL NATURALGAS WATER HEATER - 569KBTU/HR SUPPLY INLET WATER NODE,Water,1
 Node,165,569GAL NATURALGAS WATER HEATER - 569KBTU/HR SUPPLY OUTLET WATER NODE,Water,1
 Node,166,PIPE ADIABATIC 1 INLET WATER NODE,Water,1
 Node,167,PIPE ADIABATIC 1 OUTLET WATER NODE,Water,1
 Node,168,PIPE ADIABATIC 3 INLET WATER NODE,Water,1
 Node,169,OFFICE SHARED SERVICE WATER LOOP SUPPLY OUTLET NODE,Water,4
 Node,170,OFFICE SHARED SERVICE WATER LOOP DEMAND INLET NODE,Water,2
 Node,171,OFFICE SHARED SERVICE WATER LOOP PIPE 827.2135954999578FT OUTLET WATER NODE,Water,1
 Node,172,PIPE ADIABATIC 2 INLET WATER NODE,Water,1
 Node,173,PIPE ADIABATIC 2 OUTLET WATER NODE,Water,1
 Node,174,OFFICE WHOLEBUILDING - MD OFFICE - 90.1-2010 WUC 15.85GPM AT 140F INLET WATER NODE,Water,1
 Node,175,OFFICE WHOLEBUILDING - MD OFFICE - 90.1-2010 WUC 15.85GPM AT 140F OUTLET WATER NODE,Water,1
 Node,176,OFFICE SHARED SERVICE WATER LOOP DEMAND BYPASS PIPE INLET NODE,Water,1
 Node,177,OFFICE SHARED SERVICE WATER LOOP DEMAND BYPASS PIPE OUTLET NODE,Water,1
 Node,178,PIPE ADIABATIC 4 INLET WATER NODE,Water,1
 Node,179,OFFICE SHARED SERVICE WATER LOOP DEMAND OUTLET NODE,Water,2
 Node,180,ZONE CORE SPACE - STORY GROUND ZONE AIR NODE,Air,0
 Node,181,ZONE CORE SPACE - STORY MID ZONE AIR NODE,Air,0
 Node,182,ZONE CORE SPACE - STORY TOP ZONE AIR NODE,Air,0
 Node,183,ZONE EAST PERIMETER SPACE - STORY GROUND ZONE AIR NODE,Air,1
 Node,184,ZONE EAST PERIMETER SPACE - STORY MID ZONE AIR NODE,Air,0
 Node,185,ZONE EAST PERIMETER SPACE - STORY TOP ZONE AIR NODE,Air,0
 Node,186,ZONE NORTH PERIMETER SPACE - STORY GROUND ZONE AIR NODE,Air,1
 Node,187,ZONE NORTH PERIMETER SPACE - STORY MID ZONE AIR NODE,Air,0
 Node,188,ZONE NORTH PERIMETER SPACE - STORY TOP ZONE AIR NODE,Air,0
 Node,189,ZONE SOUTH PERIMETER SPACE - STORY GROUND ZONE AIR NODE,Air,1
 Node,190,ZONE SOUTH PERIMETER SPACE - STORY MID ZONE AIR NODE,Air,0
 Node,191,ZONE SOUTH PERIMETER SPACE - STORY TOP ZONE AIR NODE,Air,0
 Node,192,ZONE WEST PERIMETER SPACE - STORY GROUND ZONE AIR NODE,Air,1
 Node,193,ZONE WEST PERIMETER SPACE - STORY MID ZONE AIR NODE,Air,0
 Node,194,ZONE WEST PERIMETER SPACE - STORY TOP ZONE AIR NODE,Air,0
 Node,195,1 ZONE VAV DEMAND OUTLET NODE,Air,2
 Node,196,5 ZONE VAV DEMAND OUTLET NODE,Air,2
 Node,197,5 ZONE VAV 1 DEMAND OUTLET NODE,Air,2
 Node,198,ZONE EAST PERIMETER SPACE - STORY GROUND PSZ-AC DEMAND OUTLET NODE,Air,2
 Node,199,ZONE NORTH PERIMETER SPACE - STORY GROUND PSZ-AC DEMAND OUTLET NODE,Air,2
 Node,200,ZONE SOUTH PERIMETER SPACE - STORY GROUND PSZ-AC DEMAND OUTLET NODE,Air,2
 Node,201,ZONE WEST PERIMETER SPACE - STORY GROUND PSZ-AC DEMAND OUTLET NODE,Air,2
 Node,202,1 ZONE VAV OUTDOOR AIR NODE,Air,2
 Node,203,5 ZONE VAV OUTDOOR AIR NODE,Air,3
 Node,204,5 ZONE VAV 1 OUTDOOR AIR NODE,Air,2
 Node,205,ZONE EAST PERIMETER SPACE - STORY GROUND PSZ-AC OUTDOOR AIR NODE,Air,2
 Node,206,ZONE NORTH PERIMETER SPACE - STORY GROUND PSZ-AC OUTDOOR AIR NODE,Air,2
 Node,207,ZONE SOUTH PERIMETER SPACE - STORY GROUND PSZ-AC OUTDOOR AIR NODE,Air,2
 Node,208,ZONE WEST PERIMETER SPACE - STORY GROUND PSZ-AC OUTDOOR AIR NODE,Air,2
 Node,209,MODEL OUTDOOR AIR NODE,Air,0
 Node,210,NODE 2,Air,2
 Node,211,ZONE CORE SPACE - STORY GROUND VAV TERMINAL INLET AIR NODE,Air,1
 Node,212,ZONE NORTH PERIMETER SPACE - STORY MID VAV TERMINAL INLET AIR NODE,Air,1
 Node,213,ZONE SOUTH PERIMETER SPACE - STORY MID VAV TERMINAL INLET AIR NODE,Air,1
 Node,214,ZONE WEST PERIMETER SPACE - STORY MID VAV TERMINAL INLET AIR NODE,Air,1
 Node,215,ZONE CORE SPACE - STORY MID VAV TERMINAL INLET AIR NODE,Air,1
 Node,216,ZONE EAST PERIMETER SPACE - STORY MID VAV TERMINAL INLET AIR NODE,Air,1
 Node,217,ZONE NORTH PERIMETER SPACE - STORY TOP VAV TERMINAL INLET AIR NODE,Air,1
 Node,218,ZONE SOUTH PERIMETER SPACE - STORY TOP VAV TERMINAL INLET AIR NODE,Air,1
 Node,219,ZONE WEST PERIMETER SPACE - STORY TOP VAV TERMINAL INLET AIR NODE,Air,1
 Node,220,ZONE CORE SPACE - STORY TOP VAV TERMINAL INLET AIR NODE,Air,1
 Node,221,ZONE EAST PERIMETER SPACE - STORY TOP VAV TERMINAL INLET AIR NODE,Air,1
 Node,222,ZONE EAST PERIMETER SPACE - STORY GROUND PSZ-AC DIFFUSER INLET AIR NODE,Air,1
 Node,223,ZONE NORTH PERIMETER SPACE - STORY GROUND PSZ-AC DIFFUSER INLET AIR NODE,Air,1
 Node,224,ZONE SOUTH PERIMETER SPACE - STORY GROUND PSZ-AC DIFFUSER INLET AIR NODE,Air,1
 Node,225,ZONE WEST PERIMETER SPACE - STORY GROUND PSZ-AC DIFFUSER INLET AIR NODE,Air,1
 Node,226,ZONE CORE SPACE - STORY GROUND VAV TERMINAL DAMPER OUTLET,Air,1
 Node,227,ZONE CORE SPACE - STORY MID VAV TERMINAL DAMPER OUTLET,Air,1
 Node,228,ZONE CORE SPACE - STORY TOP VAV TERMINAL DAMPER OUTLET,Air,1
 Node,229,ZONE EAST PERIMETER SPACE - STORY MID VAV TERMINAL DAMPER OUTLET,Air,1
 Node,230,ZONE EAST PERIMETER SPACE - STORY TOP VAV TERMINAL DAMPER OUTLET,Air,1
 Node,231,ZONE NORTH PERIMETER SPACE - STORY MID VAV TERMINAL DAMPER OUTLET,Air,1
 Node,232,ZONE NORTH PERIMETER SPACE - STORY TOP VAV TERMINAL DAMPER OUTLET,Air,1
 Node,233,ZONE SOUTH PERIMETER SPACE - STORY MID VAV TERMINAL DAMPER OUTLET,Air,1
 Node,234,ZONE SOUTH PERIMETER SPACE - STORY TOP VAV TERMINAL DAMPER OUTLET,Air,1
 Node,235,ZONE WEST PERIMETER SPACE - STORY MID VAV TERMINAL DAMPER OUTLET,Air,1
 Node,236,ZONE WEST PERIMETER SPACE - STORY TOP VAV TERMINAL DAMPER OUTLET,Air,1
 Node,237,1 ZONE VAV RELIEF AIR NODE,Air,1
 Node,238,NODE 3,Air,2
 Node,239,5 ZONE VAV 1 RELIEF AIR NODE,Air,1
 Node,240,ZONE EAST PERIMETER SPACE - STORY GROUND PSZ-AC RELIEF AIR NODE,Air,1
 Node,241,ZONE NORTH PERIMETER SPACE - STORY GROUND PSZ-AC RELIEF AIR NODE,Air,1
 Node,242,ZONE SOUTH PERIMETER SPACE - STORY GROUND PSZ-AC RELIEF AIR NODE,Air,1
 Node,243,ZONE WEST PERIMETER SPACE - STORY GROUND PSZ-AC RELIEF AIR NODE,Air,1
 Node,244,5 ZONE VAV RELIEF AIR NODE,Air,0
! ===============================================================
! Suspicious nodes have 0 references.  It is normal for some nodes, however.
! Listing nodes with 0 references (culled from previous list):
! <Suspicious Node>,<NodeNumber>,<Node Name>,<Node Fluid Type>,<# Times Node Referenced After Definition>
 Suspicious Node,180,ZONE CORE SPACE - STORY GROUND ZONE AIR NODE,Air,0
 Suspicious Node,181,ZONE CORE SPACE - STORY MID ZONE AIR NODE,Air,0
 Suspicious Node,182,ZONE CORE SPACE - STORY TOP ZONE AIR NODE,Air,0
 Suspicious Node,184,ZONE EAST PERIMETER SPACE - STORY MID ZONE AIR NODE,Air,0
 Suspicious Node,185,ZONE EAST PERIMETER SPACE - STORY TOP ZONE AIR NODE,Air,0
 Suspicious Node,187,ZONE NORTH PERIMETER SPACE - STORY MID ZONE AIR NODE,Air,0
 Suspicious Node,188,ZONE NORTH PERIMETER SPACE - STORY TOP ZONE AIR NODE,Air,0
 Suspicious Node,190,ZONE SOUTH PERIMETER SPACE - STORY MID ZONE AIR NODE,Air,0
 Suspicious Node,191,ZONE SOUTH PERIMETER SPACE - STORY TOP ZONE AIR NODE,Air,0
 Suspicious Node,193,ZONE WEST PERIMETER SPACE - STORY MID ZONE AIR NODE,Air,0
 Suspicious Node,194,ZONE WEST PERIMETER SPACE - STORY TOP ZONE AIR NODE,Air,0
 Suspicious Node,209,MODEL OUTDOOR AIR NODE,Air,0
 Suspicious Node,244,5 ZONE VAV RELIEF AIR NODE,Air,0
! ===============================================================
! <#Branch Lists>,<Number of Branch Lists>
 #Branch Lists,15
! <Branch List>,<Branch List Count>,<Branch List Name>,<Loop Name>,<Loop Type>,<Number of Branches>
! <Branch>,<Branch Count>,<Branch Name>,<Loop Name>,<Loop Type>,<Branch Inlet Node Name>,<Branch Outlet Node Name>
 Branch List,1,1 ZONE VAV SUPPLY BRANCHES,1 ZONE VAV,Air,1
   Branch,1,1 ZONE VAV MAIN BRANCH,1 ZONE VAV,Air,1 ZONE VAV SUPPLY INLET NODE,1 ZONE VAV SUPPLY OUTLET NODE
 Branch List,2,5 ZONE VAV SUPPLY BRANCHES,5 ZONE VAV,Air,1
   Branch,1,5 ZONE VAV MAIN BRANCH,5 ZONE VAV,Air,5 ZONE VAV SUPPLY INLET NODE,5 ZONE VAV SUPPLY OUTLET NODE
 Branch List,3,5 ZONE VAV 1 SUPPLY BRANCHES,5 ZONE VAV 1,Air,1
   Branch,1,5 ZONE VAV 1 MAIN BRANCH,5 ZONE VAV 1,Air,5 ZONE VAV 1 SUPPLY INLET NODE,5 ZONE VAV 1 SUPPLY OUTLET NODE
 Branch List,4,ZONE EAST PERIMETER SPACE - STORY GROUND PSZ-AC SUPPLY BRANCHES,ZONE EAST PERIMETER SPACE - STORY GROUND PSZ-AC,Air,1
   Branch,1,ZONE EAST PERIMETER SPACE - STORY GROUND PSZ-AC MAIN BRANCH,ZONE EAST PERIMETER SPACE - STORY GROUND PSZ-AC,Air,ZONE EAST PERIMETER SPACE - STORY GROUND PSZ-AC SUPPLY INLET NODE,ZONE EAST PERIMETER SPACE - STORY GROUND PSZ-AC SUPPLY OUTLET NODE
 Branch List,5,ZONE NORTH PERIMETER SPACE - STORY GROUND PSZ-AC SUPPLY BRANCHES,ZONE NORTH PERIMETER SPACE - STORY GROUND PSZ-AC,Air,1
   Branch,1,ZONE NORTH PERIMETER SPACE - STORY GROUND PSZ-AC MAIN BRANCH,ZONE NORTH PERIMETER SPACE - STORY GROUND PSZ-AC,Air,ZONE NORTH PERIMETER SPACE - STORY GROUND PSZ-AC SUPPLY INLET NODE,ZONE NORTH PERIMETER SPACE - STORY GROUND PSZ-AC SUPPLY OUTLET NODE
 Branch List,6,ZONE SOUTH PERIMETER SPACE - STORY GROUND PSZ-AC SUPPLY BRANCHES,ZONE SOUTH PERIMETER SPACE - STORY GROUND PSZ-AC,Air,1
   Branch,1,ZONE SOUTH PERIMETER SPACE - STORY GROUND PSZ-AC MAIN BRANCH,ZONE SOUTH PERIMETER SPACE - STORY GROUND PSZ-AC,Air,ZONE SOUTH PERIMETER SPACE - STORY GROUND PSZ-AC SUPPLY INLET NODE,ZONE SOUTH PERIMETER SPACE - STORY GROUND PSZ-AC SUPPLY OUTLET NODE
 Branch List,7,ZONE WEST PERIMETER SPACE - STORY GROUND PSZ-AC SUPPLY BRANCHES,ZONE WEST PERIMETER SPACE - STORY GROUND PSZ-AC,Air,1
   Branch,1,ZONE WEST PERIMETER SPACE - STORY GROUND PSZ-AC MAIN BRANCH,ZONE WEST PERIMETER SPACE - STORY GROUND PSZ-AC,Air,ZONE WEST PERIMETER SPACE - STORY GROUND PSZ-AC SUPPLY INLET NODE,ZONE WEST PERIMETER SPACE - STORY GROUND PSZ-AC SUPPLY OUTLET NODE
 Branch List,8,CHILLED WATER LOOP SUPPLY BRANCHES,CHILLED WATER LOOP,Plant Supply,4
   Branch,1,CHILLED WATER LOOP SUPPLY INLET BRANCH,CHILLED WATER LOOP,Plant Supply,CHILLED WATER LOOP SUPPLY INLET NODE,CHILLED WATER LOOP PRIMARY PUMP OUTLET WATER NODE
   Branch,2,CHILLED WATER LOOP SUPPLY BRANCH 1,CHILLED WATER LOOP,Plant Supply,90.1-2010 WATERCOOLED  ROTARY SCREW CHILLER 0 SUPPLY INLET WATER NODE,90.1-2010 WATERCOOLED  ROTARY SCREW CHILLER 0 SUPPLY OUTLET WATER NODE
   Branch,3,CHILLED WATER LOOP SUPPLY BRANCH 2,CHILLED WATER LOOP,Plant Supply,CHILLED WATER LOOP CHILLER BYPASS INLET WATER NODE,CHILLED WATER LOOP CHILLER BYPASS OUTLET WATER NODE
   Branch,4,CHILLED WATER LOOP SUPPLY OUTLET BRANCH,CHILLED WATER LOOP,Plant Supply,CHILLED WATER LOOP SUPPLY OUTLET INLET WATER NODE,CHILLED WATER LOOP SUPPLY OUTLET NODE
 Branch List,9,CHILLED WATER LOOP DEMAND BRANCHES,CHILLED WATER LOOP,Plant Demand,7
   Branch,1,CHILLED WATER LOOP DEMAND INLET BRANCH,CHILLED WATER LOOP,Plant Demand,CHILLED WATER LOOP DEMAND INLET NODE,CHILLED WATER LOOP SECONDARY PUMP OUTLET WATER NODE
   Branch,2,CHILLED WATER LOOP DEMAND BRANCH 1,CHILLED WATER LOOP,Plant Demand,CHILLED WATER LOOP COIL BYPASS INLET WATER NODE,CHILLED WATER LOOP COIL BYPASS OUTLET WATER NODE
   Branch,3,CHILLED WATER LOOP DEMAND BRANCH 2,CHILLED WATER LOOP,Plant Demand,1 ZONE VAV CLG COIL INLET WATER NODE,1 ZONE VAV CLG COIL OUTLET WATER NODE
   Branch,4,CHILLED WATER LOOP DEMAND BRANCH 3,CHILLED WATER LOOP,Plant Demand,5 ZONE VAV CLG COIL INLET WATER NODE,5 ZONE VAV CLG COIL OUTLET WATER NODE
   Branch,5,CHILLED WATER LOOP DEMAND BRANCH 4,CHILLED WATER LOOP,Plant Demand,5 ZONE VAV 1 CLG COIL INLET WATER NODE,5 ZONE VAV 1 CLG COIL OUTLET WATER NODE
   Branch,6,CHILLED WATER LOOP DEMAND BYPASS BRANCH,CHILLED WATER LOOP,Plant Demand,CHILLED WATER LOOP DEMAND BYPASS PIPE INLET NODE,CHILLED WATER LOOP DEMAND BYPASS PIPE OUTLET NODE
   Branch,7,CHILLED WATER LOOP DEMAND OUTLET BRANCH,CHILLED WATER LOOP,Plant Demand,CHILLED WATER LOOP DEMAND OUTLET INLET WATER NODE,CHILLED WATER LOOP DEMAND OUTLET NODE
 Branch List,10,CONDENSER WATER LOOP SUPPLY BRANCHES,CONDENSER WATER LOOP,Plant Supply,4
   Branch,1,CONDENSER WATER LOOP SUPPLY INLET BRANCH,CONDENSER WATER LOOP,Plant Supply,CONDENSER WATER LOOP SUPPLY INLET NODE,CONDENSER WATER LOOP CONSTANT PUMP OUTLET WATER NODE
   Branch,2,CONDENSER WATER LOOP SUPPLY BRANCH 1,CONDENSER WATER LOOP,Plant Supply,PROPELLER OR AXIAL VARIABLE SPEED FAN OPEN COOLING TOWER INLET WATER NODE,PROPELLER OR AXIAL VARIABLE SPEED FAN OPEN COOLING TOWER OUTLET WATER NODE
   Branch,3,CONDENSER WATER LOOP SUPPLY BRANCH 2,CONDENSER WATER LOOP,Plant Supply,CONDENSER WATER LOOP COOLING TOWER BYPASS INLET WATER NODE,CONDENSER WATER LOOP COOLING TOWER BYPASS OUTLET WATER NODE
   Branch,4,CONDENSER WATER LOOP SUPPLY OUTLET BRANCH,CONDENSER WATER LOOP,Plant Supply,CONDENSER WATER LOOP SUPPLY OUTLET INLET WATER NODE,CONDENSER WATER LOOP SUPPLY OUTLET NODE
 Branch List,11,CONDENSER WATER LOOP DEMAND BRANCHES,CONDENSER WATER LOOP,Plant Demand,5
   Branch,1,CONDENSER WATER LOOP DEMAND INLET BRANCH,CONDENSER WATER LOOP,Plant Demand,CONDENSER WATER LOOP DEMAND INLET NODE,CONDENSER WATER LOOP DEMAND INLET OUTLET WATER NODE
   Branch,2,CONDENSER WATER LOOP DEMAND BRANCH 1,CONDENSER WATER LOOP,Plant Demand,CONDENSER WATER LOOP CHILLER BYPASS INLET WATER NODE,CONDENSER WATER LOOP CHILLER BYPASS OUTLET WATER NODE
   Branch,3,CONDENSER WATER LOOP DEMAND BRANCH 2,CONDENSER WATER LOOP,Plant Demand,90.1-2010 WATERCOOLED  ROTARY SCREW CHILLER 0 DEMAND INLET WATER NODE,90.1-2010 WATERCOOLED  ROTARY SCREW CHILLER 0 DEMAND OUTLET WATER NODE
   Branch,4,CONDENSER WATER LOOP DEMAND BYPASS BRANCH,CONDENSER WATER LOOP,Plant Demand,CONDENSER WATER LOOP DEMAND BYPASS PIPE INLET NODE,CONDENSER WATER LOOP DEMAND BYPASS PIPE OUTLET NODE
   Branch,5,CONDENSER WATER LOOP DEMAND OUTLET BRANCH,CONDENSER WATER LOOP,Plant Demand,CONDENSER WATER LOOP DEMAND OUTLET INLET WATER NODE,CONDENSER WATER LOOP DEMAND OUTLET NODE
 Branch List,12,HOT WATER LOOP SUPPLY BRANCHES,HOT WATER LOOP,Plant Supply,4
   Branch,1,HOT WATER LOOP SUPPLY INLET BRANCH,HOT WATER LOOP,Plant Supply,HOT WATER LOOP SUPPLY INLET NODE,HOT WATER LOOP PUMP OUTLET WATER NODE
   Branch,2,HOT WATER LOOP SUPPLY BRANCH 1,HOT WATER LOOP,Plant Supply,BOILER INLET WATER NODE,BOILER OUTLET WATER NODE
   Branch,3,HOT WATER LOOP SUPPLY BRANCH 2,HOT WATER LOOP,Plant Supply,HOT WATER LOOP SUPPLY EQUIPMENT BYPASS INLET WATER NODE,HOT WATER LOOP SUPPLY EQUIPMENT BYPASS OUTLET WATER NODE
   Branch,4,HOT WATER LOOP SUPPLY OUTLET BRANCH,HOT WATER LOOP,Plant Supply,HOT WATER LOOP SUPPLY OUTLET INLET WATER NODE,HOT WATER LOOP SUPPLY OUTLET NODE
 Branch List,13,HOT WATER LOOP DEMAND BRANCHES,HOT WATER LOOP,Plant Demand,18
   Branch,1,HOT WATER LOOP DEMAND INLET BRANCH,HOT WATER LOOP,Plant Demand,HOT WATER LOOP DEMAND INLET NODE,HOT WATER LOOP DEMAND INLET OUTLET WATER NODE
   Branch,2,HOT WATER LOOP DEMAND BRANCH 1,HOT WATER LOOP,Plant Demand,HOT WATER LOOP COIL BYPASS INLET WATER NODE,HOT WATER LOOP COIL BYPASS OUTLET WATER NODE
   Branch,3,HOT WATER LOOP DEMAND BRANCH 2,HOT WATER LOOP,Plant Demand,1 ZONE VAV MAIN HTG COIL INLET WATER NODE,1 ZONE VAV MAIN HTG COIL OUTLET WATER NODE
   Branch,4,HOT WATER LOOP DEMAND BRANCH 3,HOT WATER LOOP,Plant Demand,ZONE CORE SPACE - STORY GROUND REHEAT COIL INLET WATER NODE,ZONE CORE SPACE - STORY GROUND REHEAT COIL OUTLET WATER NODE
   Branch,5,HOT WATER LOOP DEMAND BRANCH 4,HOT WATER LOOP,Plant Demand,5 ZONE VAV MAIN HTG COIL INLET WATER NODE,5 ZONE VAV MAIN HTG COIL OUTLET WATER NODE
   Branch,6,HOT WATER LOOP DEMAND BRANCH 5,HOT WATER LOOP,Plant Demand,ZONE NORTH PERIMETER SPACE - STORY MID REHEAT COIL INLET WATER NODE,ZONE NORTH PERIMETER SPACE - STORY MID REHEAT COIL OUTLET WATER NODE
   Branch,7,HOT WATER LOOP DEMAND BRANCH 6,HOT WATER LOOP,Plant Demand,ZONE SOUTH PERIMETER SPACE - STORY MID REHEAT COIL INLET WATER NODE,ZONE SOUTH PERIMETER SPACE - STORY MID REHEAT COIL OUTLET WATER NODE
   Branch,8,HOT WATER LOOP DEMAND BRANCH 7,HOT WATER LOOP,Plant Demand,ZONE WEST PERIMETER SPACE - STORY MID REHEAT COIL INLET WATER NODE,ZONE WEST PERIMETER SPACE - STORY MID REHEAT COIL OUTLET WATER NODE
   Branch,9,HOT WATER LOOP DEMAND BRANCH 8,HOT WATER LOOP,Plant Demand,ZONE CORE SPACE - STORY MID REHEAT COIL INLET WATER NODE,ZONE CORE SPACE - STORY MID REHEAT COIL OUTLET WATER NODE
   Branch,10,HOT WATER LOOP DEMAND BRANCH 9,HOT WATER LOOP,Plant Demand,ZONE EAST PERIMETER SPACE - STORY MID REHEAT COIL INLET WATER NODE,ZONE EAST PERIMETER SPACE - STORY MID REHEAT COIL OUTLET WATER NODE
   Branch,11,HOT WATER LOOP DEMAND BRANCH 10,HOT WATER LOOP,Plant Demand,5 ZONE VAV 1 MAIN HTG COIL INLET WATER NODE,5 ZONE VAV 1 MAIN HTG COIL OUTLET WATER NODE
   Branch,12,HOT WATER LOOP DEMAND BRANCH 11,HOT WATER LOOP,Plant Demand,ZONE NORTH PERIMETER SPACE - STORY TOP REHEAT COIL INLET WATER NODE,ZONE NORTH PERIMETER SPACE - STORY TOP REHEAT COIL OUTLET WATER NODE
   Branch,13,HOT WATER LOOP DEMAND BRANCH 12,HOT WATER LOOP,Plant Demand,ZONE SOUTH PERIMETER SPACE - STORY TOP REHEAT COIL INLET WATER NODE,ZONE SOUTH PERIMETER SPACE - STORY TOP REHEAT COIL OUTLET WATER NODE
   Branch,14,HOT WATER LOOP DEMAND BRANCH 13,HOT WATER LOOP,Plant Demand,ZONE WEST PERIMETER SPACE - STORY TOP REHEAT COIL INLET WATER NODE,ZONE WEST PERIMETER SPACE - STORY TOP REHEAT COIL OUTLET WATER NODE
   Branch,15,HOT WATER LOOP DEMAND BRANCH 14,HOT WATER LOOP,Plant Demand,ZONE CORE SPACE - STORY TOP REHEAT COIL INLET WATER NODE,ZONE CORE SPACE - STORY TOP REHEAT COIL OUTLET WATER NODE
   Branch,16,HOT WATER LOOP DEMAND BRANCH 15,HOT WATER LOOP,Plant Demand,ZONE EAST PERIMETER SPACE - STORY TOP REHEAT COIL INLET WATER NODE,ZONE EAST PERIMETER SPACE - STORY TOP REHEAT COIL OUTLET WATER NODE
   Branch,17,HOT WATER LOOP DEMAND BYPASS BRANCH,HOT WATER LOOP,Plant Demand,HOT WATER LOOP DEMAND BYPASS PIPE INLET NODE,HOT WATER LOOP DEMAND BYPASS PIPE OUTLET NODE
   Branch,18,HOT WATER LOOP DEMAND OUTLET BRANCH,HOT WATER LOOP,Plant Demand,HOT WATER LOOP DEMAND OUTLET INLET WATER NODE,HOT WATER LOOP DEMAND OUTLET NODE
 Branch List,14,OFFICE SHARED SERVICE WATER LOOP SUPPLY BRANCHES,OFFICE SHARED SERVICE WATER LOOP,Plant Supply,4
   Branch,1,OFFICE SHARED SERVICE WATER LOOP SUPPLY INLET BRANCH,OFFICE SHARED SERVICE WATER LOOP,Plant Supply,OFFICE SHARED SERVICE WATER LOOP SUPPLY INLET NODE,OFFICE SHARED SERVICE WATER LOOP CIRCULATOR PUMP OUTLET WATER NODE
   Branch,2,OFFICE SHARED SERVICE WATER LOOP SUPPLY BRANCH 1,OFFICE SHARED SERVICE WATER LOOP,Plant Supply,569GAL NATURALGAS WATER HEATER - 569KBTU/HR SUPPLY INLET WATER NODE,569GAL NATURALGAS WATER HEATER - 569KBTU/HR SUPPLY OUTLET WATER NODE
   Branch,3,OFFICE SHARED SERVICE WATER LOOP SUPPLY BRANCH 2,OFFICE SHARED SERVICE WATER LOOP,Plant Supply,PIPE ADIABATIC 1 INLET WATER NODE,PIPE ADIABATIC 1 OUTLET WATER NODE
   Branch,4,OFFICE SHARED SERVICE WATER LOOP SUPPLY OUTLET BRANCH,OFFICE SHARED SERVICE WATER LOOP,Plant Supply,PIPE ADIABATIC 3 INLET WATER NODE,OFFICE SHARED SERVICE WATER LOOP SUPPLY OUTLET NODE
 Branch List,15,OFFICE SHARED SERVICE WATER LOOP DEMAND BRANCHES,OFFICE SHARED SERVICE WATER LOOP,Plant Demand,5
   Branch,1,OFFICE SHARED SERVICE WATER LOOP DEMAND INLET BRANCH,OFFICE SHARED SERVICE WATER LOOP,Plant Demand,OFFICE SHARED SERVICE WATER LOOP DEMAND INLET NODE,OFFICE SHARED SERVICE WATER LOOP PIPE 827.2135954999578FT OUTLET WATER NODE
   Branch,2,OFFICE SHARED SERVICE WATER LOOP DEMAND BRANCH 1,OFFICE SHARED SERVICE WATER LOOP,Plant Demand,PIPE ADIABATIC 2 INLET WATER NODE,PIPE ADIABATIC 2 OUTLET WATER NODE
   Branch,3,OFFICE SHARED SERVICE WATER LOOP DEMAND BRANCH 2,OFFICE SHARED SERVICE WATER LOOP,Plant Demand,OFFICE WHOLEBUILDING - MD OFFICE - 90.1-2010 WUC 15.85GPM AT 140F INLET WATER NODE,OFFICE WHOLEBUILDING - MD OFFICE - 90.1-2010 WUC 15.85GPM AT 140F OUTLET WATER NODE
   Branch,4,OFFICE SHARED SERVICE WATER LOOP DEMAND BYPASS BRANCH,OFFICE SHARED SERVICE WATER LOOP,Plant Demand,OFFICE SHARED SERVICE WATER LOOP DEMAND BYPASS PIPE INLET NODE,OFFICE SHARED SERVICE WATER LOOP DEMAND BYPASS PIPE OUTLET NODE
   Branch,5,OFFICE SHARED SERVICE WATER LOOP DEMAND OUTLET BRANCH,OFFICE SHARED SERVICE WATER LOOP,Plant Demand,PIPE ADIABATIC 4 INLET WATER NODE,OFFICE SHARED SERVICE WATER LOOP DEMAND OUTLET NODE
! ===============================================================
! <#Supply Air Paths>,<Number of Supply Air Paths>
 #Supply Air Paths,7
! <Supply Air Path>,<Supply Air Path Count>,<Supply Air Path Name>,<AirLoopHVAC Name>
! <#Components on Supply Air Path>,<Number of Components>
! <Supply Air Path Component>,<Component Count>,<Component Type>,<Component Name>,<AirLoopHVAC Name>
! <#Outlet Nodes on Supply Air Path Component>,<Number of Nodes>
! <Supply Air Path Component Nodes>,<Node Count>,<Component Type>,<Component Name>,<Inlet Node Name>,<Outlet Node Name>,<AirLoopHVAC Name>
 Supply Air Path,1,1 ZONE VAV 1 ZONE VAV DEMAND INLET NODE SUPPLY PATH,1 ZONE VAV
   #Components on Supply Air Path,1
   Supply Air Path Component,1,AIRLOOPHVAC:ZONESPLITTER,AIR LOOP HVAC ZONE SPLITTER 1,1 ZONE VAV
     #Outlet Nodes on Supply Air Path Component,1
     Supply Air Path Component Nodes,1,AIRLOOPHVAC:ZONESPLITTER,AIR LOOP HVAC ZONE SPLITTER 1,1 ZONE VAV DEMAND INLET NODE,ZONE CORE SPACE - STORY GROUND VAV TERMINAL INLET AIR NODE,1 ZONE VAV
! <#Nodes on Supply Air Path>,<Number of Nodes>
! <Supply Air Path Node>,<Node Type>,<Node Count>,<Node Name>,<AirLoopHVAC Name>
#Nodes on Supply Air Path,2
   Supply Air Path Node,Inlet Node,1,1 ZONE VAV DEMAND INLET NODE,1 ZONE VAV
   Supply Air Path Node,Outlet Node,2,ZONE CORE SPACE - STORY GROUND VAV TERMINAL INLET AIR NODE,1 ZONE VAV
 Supply Air Path,2,5 ZONE VAV 5 ZONE VAV DEMAND INLET NODE SUPPLY PATH,5 ZONE VAV
   #Components on Supply Air Path,1
   Supply Air Path Component,1,AIRLOOPHVAC:ZONESPLITTER,AIR LOOP HVAC ZONE SPLITTER 6,5 ZONE VAV
     #Outlet Nodes on Supply Air Path Component,5
     Supply Air Path Component Nodes,1,AIRLOOPHVAC:ZONESPLITTER,AIR LOOP HVAC ZONE SPLITTER 6,5 ZONE VAV DEMAND INLET NODE,ZONE NORTH PERIMETER SPACE - STORY MID VAV TERMINAL INLET AIR NODE,5 ZONE VAV
     Supply Air Path Component Nodes,2,AIRLOOPHVAC:ZONESPLITTER,AIR LOOP HVAC ZONE SPLITTER 6,5 ZONE VAV DEMAND INLET NODE,ZONE SOUTH PERIMETER SPACE - STORY MID VAV TERMINAL INLET AIR NODE,5 ZONE VAV
     Supply Air Path Component Nodes,3,AIRLOOPHVAC:ZONESPLITTER,AIR LOOP HVAC ZONE SPLITTER 6,5 ZONE VAV DEMAND INLET NODE,ZONE WEST PERIMETER SPACE - STORY MID VAV TERMINAL INLET AIR NODE,5 ZONE VAV
     Supply Air Path Component Nodes,4,AIRLOOPHVAC:ZONESPLITTER,AIR LOOP HVAC ZONE SPLITTER 6,5 ZONE VAV DEMAND INLET NODE,ZONE CORE SPACE - STORY MID VAV TERMINAL INLET AIR NODE,5 ZONE VAV
     Supply Air Path Component Nodes,5,AIRLOOPHVAC:ZONESPLITTER,AIR LOOP HVAC ZONE SPLITTER 6,5 ZONE VAV DEMAND INLET NODE,ZONE EAST PERIMETER SPACE - STORY MID VAV TERMINAL INLET AIR NODE,5 ZONE VAV
! <#Nodes on Supply Air Path>,<Number of Nodes>
! <Supply Air Path Node>,<Node Type>,<Node Count>,<Node Name>,<AirLoopHVAC Name>
#Nodes on Supply Air Path,6
   Supply Air Path Node,Inlet Node,1,5 ZONE VAV DEMAND INLET NODE,5 ZONE VAV
   Supply Air Path Node,Outlet Node,2,ZONE NORTH PERIMETER SPACE - STORY MID VAV TERMINAL INLET AIR NODE,5 ZONE VAV
   Supply Air Path Node,Outlet Node,3,ZONE SOUTH PERIMETER SPACE - STORY MID VAV TERMINAL INLET AIR NODE,5 ZONE VAV
   Supply Air Path Node,Outlet Node,4,ZONE WEST PERIMETER SPACE - STORY MID VAV TERMINAL INLET AIR NODE,5 ZONE VAV
   Supply Air Path Node,Outlet Node,5,ZONE CORE SPACE - STORY MID VAV TERMINAL INLET AIR NODE,5 ZONE VAV
   Supply Air Path Node,Outlet Node,6,ZONE EAST PERIMETER SPACE - STORY MID VAV TERMINAL INLET AIR NODE,5 ZONE VAV
 Supply Air Path,3,5 ZONE VAV 1 5 ZONE VAV 1 DEMAND INLET NODE SUPPLY PATH,5 ZONE VAV 1
   #Components on Supply Air Path,1
   Supply Air Path Component,1,AIRLOOPHVAC:ZONESPLITTER,AIR LOOP HVAC ZONE SPLITTER 7,5 ZONE VAV 1
     #Outlet Nodes on Supply Air Path Component,5
     Supply Air Path Component Nodes,1,AIRLOOPHVAC:ZONESPLITTER,AIR LOOP HVAC ZONE SPLITTER 7,5 ZONE VAV 1 DEMAND INLET NODE,ZONE NORTH PERIMETER SPACE - STORY TOP VAV TERMINAL INLET AIR NODE,5 ZONE VAV 1
     Supply Air Path Component Nodes,2,AIRLOOPHVAC:ZONESPLITTER,AIR LOOP HVAC ZONE SPLITTER 7,5 ZONE VAV 1 DEMAND INLET NODE,ZONE SOUTH PERIMETER SPACE - STORY TOP VAV TERMINAL INLET AIR NODE,5 ZONE VAV 1
     Supply Air Path Component Nodes,3,AIRLOOPHVAC:ZONESPLITTER,AIR LOOP HVAC ZONE SPLITTER 7,5 ZONE VAV 1 DEMAND INLET NODE,ZONE WEST PERIMETER SPACE - STORY TOP VAV TERMINAL INLET AIR NODE,5 ZONE VAV 1
     Supply Air Path Component Nodes,4,AIRLOOPHVAC:ZONESPLITTER,AIR LOOP HVAC ZONE SPLITTER 7,5 ZONE VAV 1 DEMAND INLET NODE,ZONE CORE SPACE - STORY TOP VAV TERMINAL INLET AIR NODE,5 ZONE VAV 1
     Supply Air Path Component Nodes,5,AIRLOOPHVAC:ZONESPLITTER,AIR LOOP HVAC ZONE SPLITTER 7,5 ZONE VAV 1 DEMAND INLET NODE,ZONE EAST PERIMETER SPACE - STORY TOP VAV TERMINAL INLET AIR NODE,5 ZONE VAV 1
! <#Nodes on Supply Air Path>,<Number of Nodes>
! <Supply Air Path Node>,<Node Type>,<Node Count>,<Node Name>,<AirLoopHVAC Name>
#Nodes on Supply Air Path,6
   Supply Air Path Node,Inlet Node,1,5 ZONE VAV 1 DEMAND INLET NODE,5 ZONE VAV 1
   Supply Air Path Node,Outlet Node,2,ZONE NORTH PERIMETER SPACE - STORY TOP VAV TERMINAL INLET AIR NODE,5 ZONE VAV 1
   Supply Air Path Node,Outlet Node,3,ZONE SOUTH PERIMETER SPACE - STORY TOP VAV TERMINAL INLET AIR NODE,5 ZONE VAV 1
   Supply Air Path Node,Outlet Node,4,ZONE WEST PERIMETER SPACE - STORY TOP VAV TERMINAL INLET AIR NODE,5 ZONE VAV 1
   Supply Air Path Node,Outlet Node,5,ZONE CORE SPACE - STORY TOP VAV TERMINAL INLET AIR NODE,5 ZONE VAV 1
   Supply Air Path Node,Outlet Node,6,ZONE EAST PERIMETER SPACE - STORY TOP VAV TERMINAL INLET AIR NODE,5 ZONE VAV 1
 Supply Air Path,4,ZONE EAST PERIMETER SPACE - STORY GROUND PSZ-AC ZONE EAST PERIMETER SPACE - STORY GROUND PSZ-AC DEMAND INLET NODE SUPPLY PATH,ZONE EAST PERIMETER SPACE - STORY GROUND PSZ-AC
   #Components on Supply Air Path,1
   Supply Air Path Component,1,AIRLOOPHVAC:ZONESPLITTER,AIR LOOP HVAC ZONE SPLITTER 2,ZONE EAST PERIMETER SPACE - STORY GROUND PSZ-AC
     #Outlet Nodes on Supply Air Path Component,1
     Supply Air Path Component Nodes,1,AIRLOOPHVAC:ZONESPLITTER,AIR LOOP HVAC ZONE SPLITTER 2,ZONE EAST PERIMETER SPACE - STORY GROUND PSZ-AC DEMAND INLET NODE,ZONE EAST PERIMETER SPACE - STORY GROUND PSZ-AC DIFFUSER INLET AIR NODE,ZONE EAST PERIMETER SPACE - STORY GROUND PSZ-AC
! <#Nodes on Supply Air Path>,<Number of Nodes>
! <Supply Air Path Node>,<Node Type>,<Node Count>,<Node Name>,<AirLoopHVAC Name>
#Nodes on Supply Air Path,2
   Supply Air Path Node,Inlet Node,1,ZONE EAST PERIMETER SPACE - STORY GROUND PSZ-AC DEMAND INLET NODE,ZONE EAST PERIMETER SPACE - STORY GROUND PSZ-AC
   Supply Air Path Node,Outlet Node,2,ZONE EAST PERIMETER SPACE - STORY GROUND PSZ-AC DIFFUSER INLET AIR NODE,ZONE EAST PERIMETER SPACE - STORY GROUND PSZ-AC
 Supply Air Path,5,ZONE NORTH PERIMETER SPACE - STORY GROUND PSZ-AC ZONE NORTH PERIMETER SPACE - STORY GROUND PSZ-AC DEMAND INLET NODE SUPPLY PATH,ZONE NORTH PERIMETER SPACE - STORY GROUND PSZ-AC
   #Components on Supply Air Path,1
   Supply Air Path Component,1,AIRLOOPHVAC:ZONESPLITTER,AIR LOOP HVAC ZONE SPLITTER 3,ZONE NORTH PERIMETER SPACE - STORY GROUND PSZ-AC
     #Outlet Nodes on Supply Air Path Component,1
     Supply Air Path Component Nodes,1,AIRLOOPHVAC:ZONESPLITTER,AIR LOOP HVAC ZONE SPLITTER 3,ZONE NORTH PERIMETER SPACE - STORY GROUND PSZ-AC DEMAND INLET NODE,ZONE NORTH PERIMETER SPACE - STORY GROUND PSZ-AC DIFFUSER INLET AIR NODE,ZONE NORTH PERIMETER SPACE - STORY GROUND PSZ-AC
! <#Nodes on Supply Air Path>,<Number of Nodes>
! <Supply Air Path Node>,<Node Type>,<Node Count>,<Node Name>,<AirLoopHVAC Name>
#Nodes on Supply Air Path,2
   Supply Air Path Node,Inlet Node,1,ZONE NORTH PERIMETER SPACE - STORY GROUND PSZ-AC DEMAND INLET NODE,ZONE NORTH PERIMETER SPACE - STORY GROUND PSZ-AC
   Supply Air Path Node,Outlet Node,2,ZONE NORTH PERIMETER SPACE - STORY GROUND PSZ-AC DIFFUSER INLET AIR NODE,ZONE NORTH PERIMETER SPACE - STORY GROUND PSZ-AC
 Supply Air Path,6,ZONE SOUTH PERIMETER SPACE - STORY GROUND PSZ-AC ZONE SOUTH PERIMETER SPACE - STORY GROUND PSZ-AC DEMAND INLET NODE SUPPLY PATH,ZONE SOUTH PERIMETER SPACE - STORY GROUND PSZ-AC
   #Components on Supply Air Path,1
   Supply Air Path Component,1,AIRLOOPHVAC:ZONESPLITTER,AIR LOOP HVAC ZONE SPLITTER 4,ZONE SOUTH PERIMETER SPACE - STORY GROUND PSZ-AC
     #Outlet Nodes on Supply Air Path Component,1
     Supply Air Path Component Nodes,1,AIRLOOPHVAC:ZONESPLITTER,AIR LOOP HVAC ZONE SPLITTER 4,ZONE SOUTH PERIMETER SPACE - STORY GROUND PSZ-AC DEMAND INLET NODE,ZONE SOUTH PERIMETER SPACE - STORY GROUND PSZ-AC DIFFUSER INLET AIR NODE,ZONE SOUTH PERIMETER SPACE - STORY GROUND PSZ-AC
! <#Nodes on Supply Air Path>,<Number of Nodes>
! <Supply Air Path Node>,<Node Type>,<Node Count>,<Node Name>,<AirLoopHVAC Name>
#Nodes on Supply Air Path,2
   Supply Air Path Node,Inlet Node,1,ZONE SOUTH PERIMETER SPACE - STORY GROUND PSZ-AC DEMAND INLET NODE,ZONE SOUTH PERIMETER SPACE - STORY GROUND PSZ-AC
   Supply Air Path Node,Outlet Node,2,ZONE SOUTH PERIMETER SPACE - STORY GROUND PSZ-AC DIFFUSER INLET AIR NODE,ZONE SOUTH PERIMETER SPACE - STORY GROUND PSZ-AC
 Supply Air Path,7,ZONE WEST PERIMETER SPACE - STORY GROUND PSZ-AC ZONE WEST PERIMETER SPACE - STORY GROUND PSZ-AC DEMAND INLET NODE SUPPLY PATH,ZONE WEST PERIMETER SPACE - STORY GROUND PSZ-AC
   #Components on Supply Air Path,1
   Supply Air Path Component,1,AIRLOOPHVAC:ZONESPLITTER,AIR LOOP HVAC ZONE SPLITTER 5,ZONE WEST PERIMETER SPACE - STORY GROUND PSZ-AC
     #Outlet Nodes on Supply Air Path Component,1
     Supply Air Path Component Nodes,1,AIRLOOPHVAC:ZONESPLITTER,AIR LOOP HVAC ZONE SPLITTER 5,ZONE WEST PERIMETER SPACE - STORY GROUND PSZ-AC DEMAND INLET NODE,ZONE WEST PERIMETER SPACE - STORY GROUND PSZ-AC DIFFUSER INLET AIR NODE,ZONE WEST PERIMETER SPACE - STORY GROUND PSZ-AC
! <#Nodes on Supply Air Path>,<Number of Nodes>
! <Supply Air Path Node>,<Node Type>,<Node Count>,<Node Name>,<AirLoopHVAC Name>
#Nodes on Supply Air Path,2
   Supply Air Path Node,Inlet Node,1,ZONE WEST PERIMETER SPACE - STORY GROUND PSZ-AC DEMAND INLET NODE,ZONE WEST PERIMETER SPACE - STORY GROUND PSZ-AC
   Supply Air Path Node,Outlet Node,2,ZONE WEST PERIMETER SPACE - STORY GROUND PSZ-AC DIFFUSER INLET AIR NODE,ZONE WEST PERIMETER SPACE - STORY GROUND PSZ-AC
! ===============================================================
! <#Return Air Paths>,<Number of Return Air Paths>
 #Return Air Paths,7
! <Return Air Path>,<Return Air Path Count>,<Return Air Path Name>,<AirLoopHVAC Name>
! <#Components on Return Air Path>,<Number of Components>
! <Return Air Path Component>,<Component Count>,<Component Type>,<Component Name>,<AirLoopHVAC Name>
! <#Inlet Nodes on Return Air Path Component>,<Number of Nodes>
! <Return Air Path Component Nodes>,<Node Count>,<Component Type>,<Component Name>,<Inlet Node Name>,<Outlet Node Name>,<AirLoopHVAC Name>
 Return Air Path,1,1 ZONE VAV RETURN PATH,1 ZONE VAV
   #Components on Return Air Path,1
   Return Air Path Component,1,AIRLOOPHVAC:ZONEMIXER,AIR LOOP HVAC ZONE MIXER 1,1 ZONE VAV
     #Inlet Nodes on Return Air Path Component,1
     Return Air Path Component Nodes,1,AIRLOOPHVAC:ZONEMIXER,AIR LOOP HVAC ZONE MIXER 1,ZONE CORE SPACE - STORY GROUND RETURN AIR NODE,1 ZONE VAV DEMAND OUTLET NODE,1 ZONE VAV
! <#Nodes on Return Air Path>,<Number of Nodes>
! <Return Air Path Node>,<Node Type>,<Node Count>,<Node Name>,<AirLoopHVAC Name>
   #Nodes on Return Air Path,2
   Return Air Path Node,Outlet Node,1,1 ZONE VAV DEMAND OUTLET NODE,1 ZONE VAV
   Return Air Path Node,Inlet Node,2,ZONE CORE SPACE - STORY GROUND RETURN AIR NODE,1 ZONE VAV
 Return Air Path,2,5 ZONE VAV RETURN PATH,5 ZONE VAV
   #Components on Return Air Path,1
   Return Air Path Component,1,AIRLOOPHVAC:ZONEMIXER,AIR LOOP HVAC ZONE MIXER 6,5 ZONE VAV
     #Inlet Nodes on Return Air Path Component,5
     Return Air Path Component Nodes,1,AIRLOOPHVAC:ZONEMIXER,AIR LOOP HVAC ZONE MIXER 6,ZONE NORTH PERIMETER SPACE - STORY MID RETURN AIR NODE,5 ZONE VAV DEMAND OUTLET NODE,5 ZONE VAV
     Return Air Path Component Nodes,2,AIRLOOPHVAC:ZONEMIXER,AIR LOOP HVAC ZONE MIXER 6,ZONE SOUTH PERIMETER SPACE - STORY MID RETURN AIR NODE,5 ZONE VAV DEMAND OUTLET NODE,5 ZONE VAV
     Return Air Path Component Nodes,3,AIRLOOPHVAC:ZONEMIXER,AIR LOOP HVAC ZONE MIXER 6,ZONE WEST PERIMETER SPACE - STORY MID RETURN AIR NODE,5 ZONE VAV DEMAND OUTLET NODE,5 ZONE VAV
     Return Air Path Component Nodes,4,AIRLOOPHVAC:ZONEMIXER,AIR LOOP HVAC ZONE MIXER 6,ZONE CORE SPACE - STORY MID RETURN AIR NODE,5 ZONE VAV DEMAND OUTLET NODE,5 ZONE VAV
     Return Air Path Component Nodes,5,AIRLOOPHVAC:ZONEMIXER,AIR LOOP HVAC ZONE MIXER 6,ZONE EAST PERIMETER SPACE - STORY MID RETURN AIR NODE,5 ZONE VAV DEMAND OUTLET NODE,5 ZONE VAV
! <#Nodes on Return Air Path>,<Number of Nodes>
! <Return Air Path Node>,<Node Type>,<Node Count>,<Node Name>,<AirLoopHVAC Name>
   #Nodes on Return Air Path,6
   Return Air Path Node,Outlet Node,1,5 ZONE VAV DEMAND OUTLET NODE,5 ZONE VAV
   Return Air Path Node,Inlet Node,2,ZONE NORTH PERIMETER SPACE - STORY MID RETURN AIR NODE,5 ZONE VAV
   Return Air Path Node,Inlet Node,3,ZONE SOUTH PERIMETER SPACE - STORY MID RETURN AIR NODE,5 ZONE VAV
   Return Air Path Node,Inlet Node,4,ZONE WEST PERIMETER SPACE - STORY MID RETURN AIR NODE,5 ZONE VAV
   Return Air Path Node,Inlet Node,5,ZONE CORE SPACE - STORY MID RETURN AIR NODE,5 ZONE VAV
   Return Air Path Node,Inlet Node,6,ZONE EAST PERIMETER SPACE - STORY MID RETURN AIR NODE,5 ZONE VAV
 Return Air Path,3,5 ZONE VAV 1 RETURN PATH,5 ZONE VAV 1
   #Components on Return Air Path,1
   Return Air Path Component,1,AIRLOOPHVAC:ZONEMIXER,AIR LOOP HVAC ZONE MIXER 7,5 ZONE VAV 1
     #Inlet Nodes on Return Air Path Component,5
     Return Air Path Component Nodes,1,AIRLOOPHVAC:ZONEMIXER,AIR LOOP HVAC ZONE MIXER 7,ZONE NORTH PERIMETER SPACE - STORY TOP RETURN AIR NODE,5 ZONE VAV 1 DEMAND OUTLET NODE,5 ZONE VAV 1
     Return Air Path Component Nodes,2,AIRLOOPHVAC:ZONEMIXER,AIR LOOP HVAC ZONE MIXER 7,ZONE SOUTH PERIMETER SPACE - STORY TOP RETURN AIR NODE,5 ZONE VAV 1 DEMAND OUTLET NODE,5 ZONE VAV 1
     Return Air Path Component Nodes,3,AIRLOOPHVAC:ZONEMIXER,AIR LOOP HVAC ZONE MIXER 7,ZONE WEST PERIMETER SPACE - STORY TOP RETURN AIR NODE,5 ZONE VAV 1 DEMAND OUTLET NODE,5 ZONE VAV 1
     Return Air Path Component Nodes,4,AIRLOOPHVAC:ZONEMIXER,AIR LOOP HVAC ZONE MIXER 7,ZONE CORE SPACE - STORY TOP RETURN AIR NODE,5 ZONE VAV 1 DEMAND OUTLET NODE,5 ZONE VAV 1
     Return Air Path Component Nodes,5,AIRLOOPHVAC:ZONEMIXER,AIR LOOP HVAC ZONE MIXER 7,ZONE EAST PERIMETER SPACE - STORY TOP RETURN AIR NODE,5 ZONE VAV 1 DEMAND OUTLET NODE,5 ZONE VAV 1
! <#Nodes on Return Air Path>,<Number of Nodes>
! <Return Air Path Node>,<Node Type>,<Node Count>,<Node Name>,<AirLoopHVAC Name>
   #Nodes on Return Air Path,6
   Return Air Path Node,Outlet Node,1,5 ZONE VAV 1 DEMAND OUTLET NODE,5 ZONE VAV 1
   Return Air Path Node,Inlet Node,2,ZONE NORTH PERIMETER SPACE - STORY TOP RETURN AIR NODE,5 ZONE VAV 1
   Return Air Path Node,Inlet Node,3,ZONE SOUTH PERIMETER SPACE - STORY TOP RETURN AIR NODE,5 ZONE VAV 1
   Return Air Path Node,Inlet Node,4,ZONE WEST PERIMETER SPACE - STORY TOP RETURN AIR NODE,5 ZONE VAV 1
   Return Air Path Node,Inlet Node,5,ZONE CORE SPACE - STORY TOP RETURN AIR NODE,5 ZONE VAV 1
   Return Air Path Node,Inlet Node,6,ZONE EAST PERIMETER SPACE - STORY TOP RETURN AIR NODE,5 ZONE VAV 1
 Return Air Path,4,ZONE EAST PERIMETER SPACE - STORY GROUND PSZ-AC RETURN PATH,ZONE EAST PERIMETER SPACE - STORY GROUND PSZ-AC
   #Components on Return Air Path,1
   Return Air Path Component,1,AIRLOOPHVAC:ZONEMIXER,AIR LOOP HVAC ZONE MIXER 2,ZONE EAST PERIMETER SPACE - STORY GROUND PSZ-AC
     #Inlet Nodes on Return Air Path Component,1
     Return Air Path Component Nodes,1,AIRLOOPHVAC:ZONEMIXER,AIR LOOP HVAC ZONE MIXER 2,ZONE EAST PERIMETER SPACE - STORY GROUND RETURN AIR NODE,ZONE EAST PERIMETER SPACE - STORY GROUND PSZ-AC DEMAND OUTLET NODE,ZONE EAST PERIMETER SPACE - STORY GROUND PSZ-AC
! <#Nodes on Return Air Path>,<Number of Nodes>
! <Return Air Path Node>,<Node Type>,<Node Count>,<Node Name>,<AirLoopHVAC Name>
   #Nodes on Return Air Path,2
   Return Air Path Node,Outlet Node,1,ZONE EAST PERIMETER SPACE - STORY GROUND PSZ-AC DEMAND OUTLET NODE,ZONE EAST PERIMETER SPACE - STORY GROUND PSZ-AC
   Return Air Path Node,Inlet Node,2,ZONE EAST PERIMETER SPACE - STORY GROUND RETURN AIR NODE,ZONE EAST PERIMETER SPACE - STORY GROUND PSZ-AC
 Return Air Path,5,ZONE NORTH PERIMETER SPACE - STORY GROUND PSZ-AC RETURN PATH,ZONE NORTH PERIMETER SPACE - STORY GROUND PSZ-AC
   #Components on Return Air Path,1
   Return Air Path Component,1,AIRLOOPHVAC:ZONEMIXER,AIR LOOP HVAC ZONE MIXER 3,ZONE NORTH PERIMETER SPACE - STORY GROUND PSZ-AC
     #Inlet Nodes on Return Air Path Component,1
     Return Air Path Component Nodes,1,AIRLOOPHVAC:ZONEMIXER,AIR LOOP HVAC ZONE MIXER 3,ZONE NORTH PERIMETER SPACE - STORY GROUND RETURN AIR NODE,ZONE NORTH PERIMETER SPACE - STORY GROUND PSZ-AC DEMAND OUTLET NODE,ZONE NORTH PERIMETER SPACE - STORY GROUND PSZ-AC
! <#Nodes on Return Air Path>,<Number of Nodes>
! <Return Air Path Node>,<Node Type>,<Node Count>,<Node Name>,<AirLoopHVAC Name>
   #Nodes on Return Air Path,2
   Return Air Path Node,Outlet Node,1,ZONE NORTH PERIMETER SPACE - STORY GROUND PSZ-AC DEMAND OUTLET NODE,ZONE NORTH PERIMETER SPACE - STORY GROUND PSZ-AC
   Return Air Path Node,Inlet Node,2,ZONE NORTH PERIMETER SPACE - STORY GROUND RETURN AIR NODE,ZONE NORTH PERIMETER SPACE - STORY GROUND PSZ-AC
 Return Air Path,6,ZONE SOUTH PERIMETER SPACE - STORY GROUND PSZ-AC RETURN PATH,ZONE SOUTH PERIMETER SPACE - STORY GROUND PSZ-AC
   #Components on Return Air Path,1
   Return Air Path Component,1,AIRLOOPHVAC:ZONEMIXER,AIR LOOP HVAC ZONE MIXER 4,ZONE SOUTH PERIMETER SPACE - STORY GROUND PSZ-AC
     #Inlet Nodes on Return Air Path Component,1
     Return Air Path Component Nodes,1,AIRLOOPHVAC:ZONEMIXER,AIR LOOP HVAC ZONE MIXER 4,ZONE SOUTH PERIMETER SPACE - STORY GROUND RETURN AIR NODE,ZONE SOUTH PERIMETER SPACE - STORY GROUND PSZ-AC DEMAND OUTLET NODE,ZONE SOUTH PERIMETER SPACE - STORY GROUND PSZ-AC
! <#Nodes on Return Air Path>,<Number of Nodes>
! <Return Air Path Node>,<Node Type>,<Node Count>,<Node Name>,<AirLoopHVAC Name>
   #Nodes on Return Air Path,2
   Return Air Path Node,Outlet Node,1,ZONE SOUTH PERIMETER SPACE - STORY GROUND PSZ-AC DEMAND OUTLET NODE,ZONE SOUTH PERIMETER SPACE - STORY GROUND PSZ-AC
   Return Air Path Node,Inlet Node,2,ZONE SOUTH PERIMETER SPACE - STORY GROUND RETURN AIR NODE,ZONE SOUTH PERIMETER SPACE - STORY GROUND PSZ-AC
 Return Air Path,7,ZONE WEST PERIMETER SPACE - STORY GROUND PSZ-AC RETURN PATH,ZONE WEST PERIMETER SPACE - STORY GROUND PSZ-AC
   #Components on Return Air Path,1
   Return Air Path Component,1,AIRLOOPHVAC:ZONEMIXER,AIR LOOP HVAC ZONE MIXER 5,ZONE WEST PERIMETER SPACE - STORY GROUND PSZ-AC
     #Inlet Nodes on Return Air Path Component,1
     Return Air Path Component Nodes,1,AIRLOOPHVAC:ZONEMIXER,AIR LOOP HVAC ZONE MIXER 5,ZONE WEST PERIMETER SPACE - STORY GROUND RETURN AIR NODE,ZONE WEST PERIMETER SPACE - STORY GROUND PSZ-AC DEMAND OUTLET NODE,ZONE WEST PERIMETER SPACE - STORY GROUND PSZ-AC
! <#Nodes on Return Air Path>,<Number of Nodes>
! <Return Air Path Node>,<Node Type>,<Node Count>,<Node Name>,<AirLoopHVAC Name>
   #Nodes on Return Air Path,2
   Return Air Path Node,Outlet Node,1,ZONE WEST PERIMETER SPACE - STORY GROUND PSZ-AC DEMAND OUTLET NODE,ZONE WEST PERIMETER SPACE - STORY GROUND PSZ-AC
   Return Air Path Node,Inlet Node,2,ZONE WEST PERIMETER SPACE - STORY GROUND RETURN AIR NODE,ZONE WEST PERIMETER SPACE - STORY GROUND PSZ-AC
! ===============================================================
! #Outdoor Air Nodes,<Number of Outdoor Air Nodes>
 #Outdoor Air Nodes,8
! <Outdoor Air Node>,<NodeNumber>,<Node Name>
 Outdoor Air Node,202,1 ZONE VAV OUTDOOR AIR NODE
 Outdoor Air Node,203,5 ZONE VAV OUTDOOR AIR NODE
 Outdoor Air Node,204,5 ZONE VAV 1 OUTDOOR AIR NODE
 Outdoor Air Node,205,ZONE EAST PERIMETER SPACE - STORY GROUND PSZ-AC OUTDOOR AIR NODE
 Outdoor Air Node,206,ZONE NORTH PERIMETER SPACE - STORY GROUND PSZ-AC OUTDOOR AIR NODE
 Outdoor Air Node,207,ZONE SOUTH PERIMETER SPACE - STORY GROUND PSZ-AC OUTDOOR AIR NODE
 Outdoor Air Node,208,ZONE WEST PERIMETER SPACE - STORY GROUND PSZ-AC OUTDOOR AIR NODE
 Outdoor Air Node,209,MODEL OUTDOOR AIR NODE
! ===============================================================
! <#Component Sets>,<Number of Component Sets>
 #Component Sets,122
! <Component Set>,<Component Set Count>,<Parent Object Type>,<Parent Object Name>,<Component Type>,<Component Name>,<Inlet Node ID>,<Outlet Node ID>,<Description>
 Component Set,1,BRANCH,1 ZONE VAV MAIN BRANCH,AIRLOOPHVAC:OUTDOORAIRSYSTEM,1 ZONE VAV OA SYSTEM,1 ZONE VAV SUPPLY INLET NODE,1 ZONE VAV MIXED AIR NODE,Air Nodes
 Component Set,2,BRANCH,1 ZONE VAV MAIN BRANCH,COIL:COOLING:WATER,1 ZONE VAV CLG COIL,1 ZONE VAV MIXED AIR NODE,1 ZONE VAV CLG COIL OUTLET AIR NODE,Air Nodes
 Component Set,3,BRANCH,1 ZONE VAV MAIN BRANCH,COIL:HEATING:WATER,1 ZONE VAV MAIN HTG COIL,1 ZONE VAV CLG COIL OUTLET AIR NODE,1 ZONE VAV MAIN HTG COIL OUTLET AIR NODE,Air Nodes
 Component Set,4,BRANCH,1 ZONE VAV MAIN BRANCH,FAN:VARIABLEVOLUME,1 ZONE VAV FAN,1 ZONE VAV MAIN HTG COIL OUTLET AIR NODE,1 ZONE VAV SUPPLY OUTLET NODE,Air Nodes
 Component Set,5,BRANCH,5 ZONE VAV MAIN BRANCH,AIRLOOPHVAC:OUTDOORAIRSYSTEM,5 ZONE VAV OA SYSTEM,5 ZONE VAV SUPPLY INLET NODE,5 ZONE VAV MIXED AIR NODE,Air Nodes
 Component Set,6,BRANCH,5 ZONE VAV MAIN BRANCH,COIL:COOLING:WATER,5 ZONE VAV CLG COIL,5 ZONE VAV MIXED AIR NODE,5 ZONE VAV CLG COIL OUTLET AIR NODE,Air Nodes
 Component Set,7,BRANCH,5 ZONE VAV MAIN BRANCH,COIL:HEATING:WATER,5 ZONE VAV MAIN HTG COIL,5 ZONE VAV CLG COIL OUTLET AIR NODE,5 ZONE VAV MAIN HTG COIL OUTLET AIR NODE,Air Nodes
 Component Set,8,BRANCH,5 ZONE VAV MAIN BRANCH,FAN:VARIABLEVOLUME,5 ZONE VAV FAN,5 ZONE VAV MAIN HTG COIL OUTLET AIR NODE,5 ZONE VAV SUPPLY OUTLET NODE,Air Nodes
 Component Set,9,BRANCH,5 ZONE VAV 1 MAIN BRANCH,AIRLOOPHVAC:OUTDOORAIRSYSTEM,5 ZONE VAV 1 OA SYSTEM,5 ZONE VAV 1 SUPPLY INLET NODE,5 ZONE VAV 1 MIXED AIR NODE,Air Nodes
 Component Set,10,BRANCH,5 ZONE VAV 1 MAIN BRANCH,COIL:COOLING:WATER,5 ZONE VAV 1 CLG COIL,5 ZONE VAV 1 MIXED AIR NODE,5 ZONE VAV 1 CLG COIL OUTLET AIR NODE,Air Nodes
 Component Set,11,BRANCH,5 ZONE VAV 1 MAIN BRANCH,COIL:HEATING:WATER,5 ZONE VAV 1 MAIN HTG COIL,5 ZONE VAV 1 CLG COIL OUTLET AIR NODE,5 ZONE VAV 1 MAIN HTG COIL OUTLET AIR NODE,Air Nodes
 Component Set,12,BRANCH,5 ZONE VAV 1 MAIN BRANCH,FAN:VARIABLEVOLUME,5 ZONE VAV 1 FAN,5 ZONE VAV 1 MAIN HTG COIL OUTLET AIR NODE,5 ZONE VAV 1 SUPPLY OUTLET NODE,Air Nodes
 Component Set,13,BRANCH,ZONE EAST PERIMETER SPACE - STORY GROUND PSZ-AC MAIN BRANCH,AIRLOOPHVAC:OUTDOORAIRSYSTEM,ZONE EAST PERIMETER SPACE - STORY GROUND PSZ-AC OA SYSTEM,ZONE EAST PERIMETER SPACE - STORY GROUND PSZ-AC SUPPLY INLET NODE,ZONE EAST PERIMETER SPACE - STORY GROUND PSZ-AC MIXED AIR NODE,Air Nodes
 Component Set,14,BRANCH,ZONE EAST PERIMETER SPACE - STORY GROUND PSZ-AC MAIN BRANCH,COILSYSTEM:COOLING:DX,ZONE EAST PERIMETER SPACE - STORY GROUND PSZ-AC 1SPD DX AC CLG COIL 129KBTU/HR 11.0EER COILSYSTEM,ZONE EAST PERIMETER SPACE - STORY GROUND PSZ-AC MIXED AIR NODE,ZONE EAST PERIMETER SPACE - STORY GROUND PSZ-AC 1SPD DX AC CLG COIL OUTLET AIR NODE,Air Nodes
 Component Set,15,BRANCH,ZONE EAST PERIMETER SPACE - STORY GROUND PSZ-AC MAIN BRANCH,COIL:HEATING:FUEL,ZONE EAST PERIMETER SPACE - STORY GROUND PSZ-AC GAS HTG COIL,ZONE EAST PERIMETER SPACE - STORY GROUND PSZ-AC 1SPD DX AC CLG COIL OUTLET AIR NODE,ZONE EAST PERIMETER SPACE - STORY GROUND PSZ-AC GAS HTG COIL OUTLET AIR NODE,Air Nodes
 Component Set,16,BRANCH,ZONE EAST PERIMETER SPACE - STORY GROUND PSZ-AC MAIN BRANCH,COIL:HEATING:ELECTRIC,ZONE EAST PERIMETER SPACE - STORY GROUND PSZ-AC ELECTRIC BACKUP HTG COIL,ZONE EAST PERIMETER SPACE - STORY GROUND PSZ-AC GAS HTG COIL OUTLET AIR NODE,ZONE EAST PERIMETER SPACE - STORY GROUND PSZ-AC ELECTRIC BACKUP HTG COIL OUTLET AIR NODE,Air Nodes
 Component Set,17,BRANCH,ZONE EAST PERIMETER SPACE - STORY GROUND PSZ-AC MAIN BRANCH,FAN:CONSTANTVOLUME,ZONE EAST PERIMETER SPACE - STORY GROUND PSZ-AC FAN,ZONE EAST PERIMETER SPACE - STORY GROUND PSZ-AC ELECTRIC BACKUP HTG COIL OUTLET AIR NODE,ZONE EAST PERIMETER SPACE - STORY GROUND PSZ-AC SUPPLY OUTLET NODE,Air Nodes
 Component Set,18,BRANCH,ZONE NORTH PERIMETER SPACE - STORY GROUND PSZ-AC MAIN BRANCH,AIRLOOPHVAC:OUTDOORAIRSYSTEM,ZONE NORTH PERIMETER SPACE - STORY GROUND PSZ-AC OA SYSTEM,ZONE NORTH PERIMETER SPACE - STORY GROUND PSZ-AC SUPPLY INLET NODE,ZONE NORTH PERIMETER SPACE - STORY GROUND PSZ-AC MIXED AIR NODE,Air Nodes
 Component Set,19,BRANCH,ZONE NORTH PERIMETER SPACE - STORY GROUND PSZ-AC MAIN BRANCH,COILSYSTEM:COOLING:DX,ZONE NORTH PERIMETER SPACE - STORY GROUND PSZ-AC 1SPD DX AC CLG COIL 89KBTU/HR 11.0EER COILSYSTEM,ZONE NORTH PERIMETER SPACE - STORY GROUND PSZ-AC MIXED AIR NODE,ZONE NORTH PERIMETER SPACE - STORY GROUND PSZ-AC 1SPD DX AC CLG COIL OUTLET AIR NODE,Air Nodes
 Component Set,20,BRANCH,ZONE NORTH PERIMETER SPACE - STORY GROUND PSZ-AC MAIN BRANCH,COIL:HEATING:FUEL,ZONE NORTH PERIMETER SPACE - STORY GROUND PSZ-AC GAS HTG COIL,ZONE NORTH PERIMETER SPACE - STORY GROUND PSZ-AC 1SPD DX AC CLG COIL OUTLET AIR NODE,ZONE NORTH PERIMETER SPACE - STORY GROUND PSZ-AC GAS HTG COIL OUTLET AIR NODE,Air Nodes
 Component Set,21,BRANCH,ZONE NORTH PERIMETER SPACE - STORY GROUND PSZ-AC MAIN BRANCH,COIL:HEATING:ELECTRIC,ZONE NORTH PERIMETER SPACE - STORY GROUND PSZ-AC ELECTRIC BACKUP HTG COIL,ZONE NORTH PERIMETER SPACE - STORY GROUND PSZ-AC GAS HTG COIL OUTLET AIR NODE,ZONE NORTH PERIMETER SPACE - STORY GROUND PSZ-AC ELECTRIC BACKUP HTG COIL OUTLET AIR NODE,Air Nodes
 Component Set,22,BRANCH,ZONE NORTH PERIMETER SPACE - STORY GROUND PSZ-AC MAIN BRANCH,FAN:CONSTANTVOLUME,ZONE NORTH PERIMETER SPACE - STORY GROUND PSZ-AC FAN,ZONE NORTH PERIMETER SPACE - STORY GROUND PSZ-AC ELECTRIC BACKUP HTG COIL OUTLET AIR NODE,ZONE NORTH PERIMETER SPACE - STORY GROUND PSZ-AC SUPPLY OUTLET NODE,Air Nodes
 Component Set,23,BRANCH,ZONE SOUTH PERIMETER SPACE - STORY GROUND PSZ-AC MAIN BRANCH,AIRLOOPHVAC:OUTDOORAIRSYSTEM,ZONE SOUTH PERIMETER SPACE - STORY GROUND PSZ-AC OA SYSTEM,ZONE SOUTH PERIMETER SPACE - STORY GROUND PSZ-AC SUPPLY INLET NODE,ZONE SOUTH PERIMETER SPACE - STORY GROUND PSZ-AC MIXED AIR NODE,Air Nodes
 Component Set,24,BRANCH,ZONE SOUTH PERIMETER SPACE - STORY GROUND PSZ-AC MAIN BRANCH,COILSYSTEM:COOLING:DX,ZONE SOUTH PERIMETER SPACE - STORY GROUND PSZ-AC 1SPD DX AC CLG COIL 113KBTU/HR 11.0EER COILSYSTEM,ZONE SOUTH PERIMETER SPACE - STORY GROUND PSZ-AC MIXED AIR NODE,ZONE SOUTH PERIMETER SPACE - STORY GROUND PSZ-AC 1SPD DX AC CLG COIL OUTLET AIR NODE,Air Nodes
 Component Set,25,BRANCH,ZONE SOUTH PERIMETER SPACE - STORY GROUND PSZ-AC MAIN BRANCH,COIL:HEATING:FUEL,ZONE SOUTH PERIMETER SPACE - STORY GROUND PSZ-AC GAS HTG COIL,ZONE SOUTH PERIMETER SPACE - STORY GROUND PSZ-AC 1SPD DX AC CLG COIL OUTLET AIR NODE,ZONE SOUTH PERIMETER SPACE - STORY GROUND PSZ-AC GAS HTG COIL OUTLET AIR NODE,Air Nodes
 Component Set,26,BRANCH,ZONE SOUTH PERIMETER SPACE - STORY GROUND PSZ-AC MAIN BRANCH,COIL:HEATING:ELECTRIC,ZONE SOUTH PERIMETER SPACE - STORY GROUND PSZ-AC ELECTRIC BACKUP HTG COIL,ZONE SOUTH PERIMETER SPACE - STORY GROUND PSZ-AC GAS HTG COIL OUTLET AIR NODE,ZONE SOUTH PERIMETER SPACE - STORY GROUND PSZ-AC ELECTRIC BACKUP HTG COIL OUTLET AIR NODE,Air Nodes
 Component Set,27,BRANCH,ZONE SOUTH PERIMETER SPACE - STORY GROUND PSZ-AC MAIN BRANCH,FAN:CONSTANTVOLUME,ZONE SOUTH PERIMETER SPACE - STORY GROUND PSZ-AC FAN,ZONE SOUTH PERIMETER SPACE - STORY GROUND PSZ-AC ELECTRIC BACKUP HTG COIL OUTLET AIR NODE,ZONE SOUTH PERIMETER SPACE - STORY GROUND PSZ-AC SUPPLY OUTLET NODE,Air Nodes
 Component Set,28,BRANCH,ZONE WEST PERIMETER SPACE - STORY GROUND PSZ-AC MAIN BRANCH,AIRLOOPHVAC:OUTDOORAIRSYSTEM,ZONE WEST PERIMETER SPACE - STORY GROUND PSZ-AC OA SYSTEM,ZONE WEST PERIMETER SPACE - STORY GROUND PSZ-AC SUPPLY INLET NODE,ZONE WEST PERIMETER SPACE - STORY GROUND PSZ-AC MIXED AIR NODE,Air Nodes
 Component Set,29,BRANCH,ZONE WEST PERIMETER SPACE - STORY GROUND PSZ-AC MAIN BRANCH,COILSYSTEM:COOLING:DX,ZONE WEST PERIMETER SPACE - STORY GROUND PSZ-AC 1SPD DX AC CLG COIL 146KBTU/HR 10.8EER COILSYSTEM,ZONE WEST PERIMETER SPACE - STORY GROUND PSZ-AC MIXED AIR NODE,ZONE WEST PERIMETER SPACE - STORY GROUND PSZ-AC 1SPD DX AC CLG COIL OUTLET AIR NODE,Air Nodes
 Component Set,30,BRANCH,ZONE WEST PERIMETER SPACE - STORY GROUND PSZ-AC MAIN BRANCH,COIL:HEATING:FUEL,ZONE WEST PERIMETER SPACE - STORY GROUND PSZ-AC GAS HTG COIL,ZONE WEST PERIMETER SPACE - STORY GROUND PSZ-AC 1SPD DX AC CLG COIL OUTLET AIR NODE,ZONE WEST PERIMETER SPACE - STORY GROUND PSZ-AC GAS HTG COIL OUTLET AIR NODE,Air Nodes
 Component Set,31,BRANCH,ZONE WEST PERIMETER SPACE - STORY GROUND PSZ-AC MAIN BRANCH,COIL:HEATING:ELECTRIC,ZONE WEST PERIMETER SPACE - STORY GROUND PSZ-AC ELECTRIC BACKUP HTG COIL,ZONE WEST PERIMETER SPACE - STORY GROUND PSZ-AC GAS HTG COIL OUTLET AIR NODE,ZONE WEST PERIMETER SPACE - STORY GROUND PSZ-AC ELECTRIC BACKUP HTG COIL OUTLET AIR NODE,Air Nodes
 Component Set,32,BRANCH,ZONE WEST PERIMETER SPACE - STORY GROUND PSZ-AC MAIN BRANCH,FAN:CONSTANTVOLUME,ZONE WEST PERIMETER SPACE - STORY GROUND PSZ-AC FAN,ZONE WEST PERIMETER SPACE - STORY GROUND PSZ-AC ELECTRIC BACKUP HTG COIL OUTLET AIR NODE,ZONE WEST PERIMETER SPACE - STORY GROUND PSZ-AC SUPPLY OUTLET NODE,Air Nodes
 Component Set,33,BRANCH,CHILLED WATER LOOP SUPPLY INLET BRANCH,PUMP:CONSTANTSPEED,CHILLED WATER LOOP PRIMARY PUMP,CHILLED WATER LOOP SUPPLY INLET NODE,CHILLED WATER LOOP PRIMARY PUMP OUTLET WATER NODE,Water Nodes
 Component Set,34,BRANCH,CHILLED WATER LOOP SUPPLY BRANCH 1,CHILLER:ELECTRIC:EIR,90.1-2010 WATERCOOLED  ROTARY SCREW CHILLER 0 1574TONS 0.6KW/TON,90.1-2010 WATERCOOLED  ROTARY SCREW CHILLER 0 SUPPLY INLET WATER NODE,90.1-2010 WATERCOOLED  ROTARY SCREW CHILLER 0 SUPPLY OUTLET WATER NODE,Chilled Water Nodes
 Component Set,35,BRANCH,CHILLED WATER LOOP SUPPLY BRANCH 2,PIPE:ADIABATIC,CHILLED WATER LOOP CHILLER BYPASS,CHILLED WATER LOOP CHILLER BYPASS INLET WATER NODE,CHILLED WATER LOOP CHILLER BYPASS OUTLET WATER NODE,Pipe Nodes
 Component Set,36,BRANCH,CHILLED WATER LOOP SUPPLY OUTLET BRANCH,PIPE:ADIABATIC,CHILLED WATER LOOP SUPPLY OUTLET,CHILLED WATER LOOP SUPPLY OUTLET INLET WATER NODE,CHILLED WATER LOOP SUPPLY OUTLET NODE,Pipe Nodes
 Component Set,37,BRANCH,CHILLED WATER LOOP DEMAND INLET BRANCH,PIPE:ADIABATIC,CHILLED WATER LOOP DEMAND INLET,CHILLED WATER LOOP DEMAND INLET NODE,CHILLED WATER LOOP SECONDARY PUMP INLET WATER NODE,Pipe Nodes
 Component Set,38,BRANCH,CHILLED WATER LOOP DEMAND INLET BRANCH,PUMP:VARIABLESPEED,CHILLED WATER LOOP SECONDARY PUMP,CHILLED WATER LOOP SECONDARY PUMP INLET WATER NODE,CHILLED WATER LOOP SECONDARY PUMP OUTLET WATER NODE,Water Nodes
 Component Set,39,BRANCH,CHILLED WATER LOOP DEMAND BRANCH 1,PIPE:ADIABATIC,CHILLED WATER LOOP COIL BYPASS,CHILLED WATER LOOP COIL BYPASS INLET WATER NODE,CHILLED WATER LOOP COIL BYPASS OUTLET WATER NODE,Pipe Nodes
 Component Set,40,BRANCH,CHILLED WATER LOOP DEMAND BRANCH 2,COIL:COOLING:WATER,1 ZONE VAV CLG COIL,1 ZONE VAV CLG COIL INLET WATER NODE,1 ZONE VAV CLG COIL OUTLET WATER NODE,Water Nodes
 Component Set,41,BRANCH,CHILLED WATER LOOP DEMAND BRANCH 3,COIL:COOLING:WATER,5 ZONE VAV CLG COIL,5 ZONE VAV CLG COIL INLET WATER NODE,5 ZONE VAV CLG COIL OUTLET WATER NODE,Water Nodes
 Component Set,42,BRANCH,CHILLED WATER LOOP DEMAND BRANCH 4,COIL:COOLING:WATER,5 ZONE VAV 1 CLG COIL,5 ZONE VAV 1 CLG COIL INLET WATER NODE,5 ZONE VAV 1 CLG COIL OUTLET WATER NODE,Water Nodes
 Component Set,43,BRANCH,CHILLED WATER LOOP DEMAND BYPASS BRANCH,PIPE:ADIABATIC,CHILLED WATER LOOP DEMAND BYPASS PIPE,CHILLED WATER LOOP DEMAND BYPASS PIPE INLET NODE,CHILLED WATER LOOP DEMAND BYPASS PIPE OUTLET NODE,Pipe Nodes
 Component Set,44,BRANCH,CHILLED WATER LOOP DEMAND OUTLET BRANCH,PIPE:ADIABATIC,CHILLED WATER LOOP DEMAND OUTLET,CHILLED WATER LOOP DEMAND OUTLET INLET WATER NODE,CHILLED WATER LOOP DEMAND OUTLET NODE,Pipe Nodes
 Component Set,45,BRANCH,CONDENSER WATER LOOP SUPPLY INLET BRANCH,PUMP:CONSTANTSPEED,CONDENSER WATER LOOP CONSTANT PUMP,CONDENSER WATER LOOP SUPPLY INLET NODE,CONDENSER WATER LOOP CONSTANT PUMP OUTLET WATER NODE,Water Nodes
 Component Set,46,BRANCH,CONDENSER WATER LOOP SUPPLY BRANCH 1,COOLINGTOWER:VARIABLESPEED,PROPELLER OR AXIAL VARIABLE SPEED FAN OPEN COOLING TOWER 38.2 GPM/HP,PROPELLER OR AXIAL VARIABLE SPEED FAN OPEN COOLING TOWER INLET WATER NODE,PROPELLER OR AXIAL VARIABLE SPEED FAN OPEN COOLING TOWER OUTLET WATER NODE,Chilled Water Nodes
 Component Set,47,BRANCH,CONDENSER WATER LOOP SUPPLY BRANCH 2,PIPE:ADIABATIC,CONDENSER WATER LOOP COOLING TOWER BYPASS,CONDENSER WATER LOOP COOLING TOWER BYPASS INLET WATER NODE,CONDENSER WATER LOOP COOLING TOWER BYPASS OUTLET WATER NODE,Pipe Nodes
 Component Set,48,BRANCH,CONDENSER WATER LOOP SUPPLY OUTLET BRANCH,PIPE:ADIABATIC,CONDENSER WATER LOOP SUPPLY OUTLET,CONDENSER WATER LOOP SUPPLY OUTLET INLET WATER NODE,CONDENSER WATER LOOP SUPPLY OUTLET NODE,Pipe Nodes
 Component Set,49,BRANCH,CONDENSER WATER LOOP DEMAND INLET BRANCH,PIPE:ADIABATIC,CONDENSER WATER LOOP DEMAND INLET,CONDENSER WATER LOOP DEMAND INLET NODE,CONDENSER WATER LOOP DEMAND INLET OUTLET WATER NODE,Pipe Nodes
 Component Set,50,BRANCH,CONDENSER WATER LOOP DEMAND BRANCH 1,PIPE:ADIABATIC,CONDENSER WATER LOOP CHILLER BYPASS,CONDENSER WATER LOOP CHILLER BYPASS INLET WATER NODE,CONDENSER WATER LOOP CHILLER BYPASS OUTLET WATER NODE,Pipe Nodes
 Component Set,51,BRANCH,CONDENSER WATER LOOP DEMAND BRANCH 2,CHILLER:ELECTRIC:EIR,90.1-2010 WATERCOOLED  ROTARY SCREW CHILLER 0 1574TONS 0.6KW/TON,90.1-2010 WATERCOOLED  ROTARY SCREW CHILLER 0 DEMAND INLET WATER NODE,90.1-2010 WATERCOOLED  ROTARY SCREW CHILLER 0 DEMAND OUTLET WATER NODE,Condenser Water Nodes
 Component Set,52,BRANCH,CONDENSER WATER LOOP DEMAND BYPASS BRANCH,PIPE:ADIABATIC,CONDENSER WATER LOOP DEMAND BYPASS PIPE,CONDENSER WATER LOOP DEMAND BYPASS PIPE INLET NODE,CONDENSER WATER LOOP DEMAND BYPASS PIPE OUTLET NODE,Pipe Nodes
 Component Set,53,BRANCH,CONDENSER WATER LOOP DEMAND OUTLET BRANCH,PIPE:ADIABATIC,CONDENSER WATER LOOP DEMAND OUTLET,CONDENSER WATER LOOP DEMAND OUTLET INLET WATER NODE,CONDENSER WATER LOOP DEMAND OUTLET NODE,Pipe Nodes
 Component Set,54,BRANCH,HOT WATER LOOP SUPPLY INLET BRANCH,PUMP:VARIABLESPEED,HOT WATER LOOP PUMP,HOT WATER LOOP SUPPLY INLET NODE,HOT WATER LOOP PUMP OUTLET WATER NODE,Water Nodes
 Component Set,55,BRANCH,HOT WATER LOOP SUPPLY BRANCH 1,BOILER:HOTWATER,BOILER 12277KBTU/HR 0.8 THERMAL EFF,BOILER INLET WATER NODE,BOILER OUTLET WATER NODE,Hot Water Nodes
 Component Set,56,BRANCH,HOT WATER LOOP SUPPLY BRANCH 2,PIPE:ADIABATIC,HOT WATER LOOP SUPPLY EQUIPMENT BYPASS,HOT WATER LOOP SUPPLY EQUIPMENT BYPASS INLET WATER NODE,HOT WATER LOOP SUPPLY EQUIPMENT BYPASS OUTLET WATER NODE,Pipe Nodes
 Component Set,57,BRANCH,HOT WATER LOOP SUPPLY OUTLET BRANCH,PIPE:ADIABATIC,HOT WATER LOOP SUPPLY OUTLET,HOT WATER LOOP SUPPLY OUTLET INLET WATER NODE,HOT WATER LOOP SUPPLY OUTLET NODE,Pipe Nodes
 Component Set,58,BRANCH,HOT WATER LOOP DEMAND INLET BRANCH,PIPE:ADIABATIC,HOT WATER LOOP DEMAND INLET,HOT WATER LOOP DEMAND INLET NODE,HOT WATER LOOP DEMAND INLET OUTLET WATER NODE,Pipe Nodes
 Component Set,59,BRANCH,HOT WATER LOOP DEMAND BRANCH 1,PIPE:ADIABATIC,HOT WATER LOOP COIL BYPASS,HOT WATER LOOP COIL BYPASS INLET WATER NODE,HOT WATER LOOP COIL BYPASS OUTLET WATER NODE,Pipe Nodes
 Component Set,60,BRANCH,HOT WATER LOOP DEMAND BRANCH 2,COIL:HEATING:WATER,1 ZONE VAV MAIN HTG COIL,1 ZONE VAV MAIN HTG COIL INLET WATER NODE,1 ZONE VAV MAIN HTG COIL OUTLET WATER NODE,Water Nodes
 Component Set,61,BRANCH,HOT WATER LOOP DEMAND BRANCH 3,COIL:HEATING:WATER,ZONE CORE SPACE - STORY GROUND REHEAT COIL,ZONE CORE SPACE - STORY GROUND REHEAT COIL INLET WATER NODE,ZONE CORE SPACE - STORY GROUND REHEAT COIL OUTLET WATER NODE,Water Nodes
 Component Set,62,BRANCH,HOT WATER LOOP DEMAND BRANCH 4,COIL:HEATING:WATER,5 ZONE VAV MAIN HTG COIL,5 ZONE VAV MAIN HTG COIL INLET WATER NODE,5 ZONE VAV MAIN HTG COIL OUTLET WATER NODE,Water Nodes
 Component Set,63,BRANCH,HOT WATER LOOP DEMAND BRANCH 5,COIL:HEATING:WATER,ZONE NORTH PERIMETER SPACE - STORY MID REHEAT COIL,ZONE NORTH PERIMETER SPACE - STORY MID REHEAT COIL INLET WATER NODE,ZONE NORTH PERIMETER SPACE - STORY MID REHEAT COIL OUTLET WATER NODE,Water Nodes
 Component Set,64,BRANCH,HOT WATER LOOP DEMAND BRANCH 6,COIL:HEATING:WATER,ZONE SOUTH PERIMETER SPACE - STORY MID REHEAT COIL,ZONE SOUTH PERIMETER SPACE - STORY MID REHEAT COIL INLET WATER NODE,ZONE SOUTH PERIMETER SPACE - STORY MID REHEAT COIL OUTLET WATER NODE,Water Nodes
 Component Set,65,BRANCH,HOT WATER LOOP DEMAND BRANCH 7,COIL:HEATING:WATER,ZONE WEST PERIMETER SPACE - STORY MID REHEAT COIL,ZONE WEST PERIMETER SPACE - STORY MID REHEAT COIL INLET WATER NODE,ZONE WEST PERIMETER SPACE - STORY MID REHEAT COIL OUTLET WATER NODE,Water Nodes
 Component Set,66,BRANCH,HOT WATER LOOP DEMAND BRANCH 8,COIL:HEATING:WATER,ZONE CORE SPACE - STORY MID REHEAT COIL,ZONE CORE SPACE - STORY MID REHEAT COIL INLET WATER NODE,ZONE CORE SPACE - STORY MID REHEAT COIL OUTLET WATER NODE,Water Nodes
 Component Set,67,BRANCH,HOT WATER LOOP DEMAND BRANCH 9,COIL:HEATING:WATER,ZONE EAST PERIMETER SPACE - STORY MID REHEAT COIL,ZONE EAST PERIMETER SPACE - STORY MID REHEAT COIL INLET WATER NODE,ZONE EAST PERIMETER SPACE - STORY MID REHEAT COIL OUTLET WATER NODE,Water Nodes
 Component Set,68,BRANCH,HOT WATER LOOP DEMAND BRANCH 10,COIL:HEATING:WATER,5 ZONE VAV 1 MAIN HTG COIL,5 ZONE VAV 1 MAIN HTG COIL INLET WATER NODE,5 ZONE VAV 1 MAIN HTG COIL OUTLET WATER NODE,Water Nodes
 Component Set,69,BRANCH,HOT WATER LOOP DEMAND BRANCH 11,COIL:HEATING:WATER,ZONE NORTH PERIMETER SPACE - STORY TOP REHEAT COIL,ZONE NORTH PERIMETER SPACE - STORY TOP REHEAT COIL INLET WATER NODE,ZONE NORTH PERIMETER SPACE - STORY TOP REHEAT COIL OUTLET WATER NODE,Water Nodes
 Component Set,70,BRANCH,HOT WATER LOOP DEMAND BRANCH 12,COIL:HEATING:WATER,ZONE SOUTH PERIMETER SPACE - STORY TOP REHEAT COIL,ZONE SOUTH PERIMETER SPACE - STORY TOP REHEAT COIL INLET WATER NODE,ZONE SOUTH PERIMETER SPACE - STORY TOP REHEAT COIL OUTLET WATER NODE,Water Nodes
 Component Set,71,BRANCH,HOT WATER LOOP DEMAND BRANCH 13,COIL:HEATING:WATER,ZONE WEST PERIMETER SPACE - STORY TOP REHEAT COIL,ZONE WEST PERIMETER SPACE - STORY TOP REHEAT COIL INLET WATER NODE,ZONE WEST PERIMETER SPACE - STORY TOP REHEAT COIL OUTLET WATER NODE,Water Nodes
 Component Set,72,BRANCH,HOT WATER LOOP DEMAND BRANCH 14,COIL:HEATING:WATER,ZONE CORE SPACE - STORY TOP REHEAT COIL,ZONE CORE SPACE - STORY TOP REHEAT COIL INLET WATER NODE,ZONE CORE SPACE - STORY TOP REHEAT COIL OUTLET WATER NODE,Water Nodes
 Component Set,73,BRANCH,HOT WATER LOOP DEMAND BRANCH 15,COIL:HEATING:WATER,ZONE EAST PERIMETER SPACE - STORY TOP REHEAT COIL,ZONE EAST PERIMETER SPACE - STORY TOP REHEAT COIL INLET WATER NODE,ZONE EAST PERIMETER SPACE - STORY TOP REHEAT COIL OUTLET WATER NODE,Water Nodes
 Component Set,74,BRANCH,HOT WATER LOOP DEMAND BYPASS BRANCH,PIPE:ADIABATIC,HOT WATER LOOP DEMAND BYPASS PIPE,HOT WATER LOOP DEMAND BYPASS PIPE INLET NODE,HOT WATER LOOP DEMAND BYPASS PIPE OUTLET NODE,Pipe Nodes
 Component Set,75,BRANCH,HOT WATER LOOP DEMAND OUTLET BRANCH,PIPE:ADIABATIC,HOT WATER LOOP DEMAND OUTLET,HOT WATER LOOP DEMAND OUTLET INLET WATER NODE,HOT WATER LOOP DEMAND OUTLET NODE,Pipe Nodes
 Component Set,76,BRANCH,OFFICE SHARED SERVICE WATER LOOP SUPPLY INLET BRANCH,PUMP:CONSTANTSPEED,OFFICE SHARED SERVICE WATER LOOP CIRCULATOR PUMP,OFFICE SHARED SERVICE WATER LOOP SUPPLY INLET NODE,OFFICE SHARED SERVICE WATER LOOP CIRCULATOR PUMP OUTLET WATER NODE,Water Nodes
 Component Set,77,BRANCH,OFFICE SHARED SERVICE WATER LOOP SUPPLY BRANCH 1,WATERHEATER:MIXED,569GAL NATURALGAS WATER HEATER - 569KBTU/HR 0.803 THERM EFF,569GAL NATURALGAS WATER HEATER - 569KBTU/HR SUPPLY INLET WATER NODE,569GAL NATURALGAS WATER HEATER - 569KBTU/HR SUPPLY OUTLET WATER NODE,Use Side Water Nodes
 Component Set,78,BRANCH,OFFICE SHARED SERVICE WATER LOOP SUPPLY BRANCH 2,PIPE:ADIABATIC,PIPE ADIABATIC 1,PIPE ADIABATIC 1 INLET WATER NODE,PIPE ADIABATIC 1 OUTLET WATER NODE,Pipe Nodes
 Component Set,79,BRANCH,OFFICE SHARED SERVICE WATER LOOP SUPPLY OUTLET BRANCH,PIPE:ADIABATIC,PIPE ADIABATIC 3,PIPE ADIABATIC 3 INLET WATER NODE,OFFICE SHARED SERVICE WATER LOOP SUPPLY OUTLET NODE,Pipe Nodes
 Component Set,80,BRANCH,OFFICE SHARED SERVICE WATER LOOP DEMAND INLET BRANCH,PIPE:INDOOR,OFFICE SHARED SERVICE WATER LOOP PIPE 827.2135954999578FT,OFFICE SHARED SERVICE WATER LOOP DEMAND INLET NODE,OFFICE SHARED SERVICE WATER LOOP PIPE 827.2135954999578FT OUTLET WATER NODE,Pipe Nodes
 Component Set,81,BRANCH,OFFICE SHARED SERVICE WATER LOOP DEMAND BRANCH 1,PIPE:ADIABATIC,PIPE ADIABATIC 2,PIPE ADIABATIC 2 INLET WATER NODE,PIPE ADIABATIC 2 OUTLET WATER NODE,Pipe Nodes
 Component Set,82,BRANCH,OFFICE SHARED SERVICE WATER LOOP DEMAND BRANCH 2,WATERUSE:CONNECTIONS,OFFICE WHOLEBUILDING - MD OFFICE - 90.1-2010 WUC 15.85GPM AT 140F,OFFICE WHOLEBUILDING - MD OFFICE - 90.1-2010 WUC 15.85GPM AT 140F INLET WATER NODE,OFFICE WHOLEBUILDING - MD OFFICE - 90.1-2010 WUC 15.85GPM AT 140F OUTLET WATER NODE,DHW Nodes
 Component Set,83,BRANCH,OFFICE SHARED SERVICE WATER LOOP DEMAND BYPASS BRANCH,PIPE:ADIABATIC,OFFICE SHARED SERVICE WATER LOOP DEMAND BYPASS PIPE,OFFICE SHARED SERVICE WATER LOOP DEMAND BYPASS PIPE INLET NODE,OFFICE SHARED SERVICE WATER LOOP DEMAND BYPASS PIPE OUTLET NODE,Pipe Nodes
 Component Set,84,BRANCH,OFFICE SHARED SERVICE WATER LOOP DEMAND OUTLET BRANCH,PIPE:ADIABATIC,PIPE ADIABATIC 4,PIPE ADIABATIC 4 INLET WATER NODE,OFFICE SHARED SERVICE WATER LOOP DEMAND OUTLET NODE,Pipe Nodes
 Component Set,85,ZONEHVAC:AIRDISTRIBUTIONUNIT,ADU ZONE CORE SPACE - STORY GROUND VAV TERMINAL,AIRTERMINAL:SINGLEDUCT:VAV:REHEAT,ZONE CORE SPACE - STORY GROUND VAV TERMINAL,ZONE CORE SPACE - STORY GROUND VAV TERMINAL INLET AIR NODE,ZONE CORE SPACE - STORY GROUND VAV TERMINAL OUTLET AIR NODE,Air Nodes
 Component Set,86,ZONEHVAC:AIRDISTRIBUTIONUNIT,ADU ZONE CORE SPACE - STORY MID VAV TERMINAL,AIRTERMINAL:SINGLEDUCT:VAV:REHEAT,ZONE CORE SPACE - STORY MID VAV TERMINAL,ZONE CORE SPACE - STORY MID VAV TERMINAL INLET AIR NODE,ZONE CORE SPACE - STORY MID VAV TERMINAL OUTLET AIR NODE,Air Nodes
 Component Set,87,ZONEHVAC:AIRDISTRIBUTIONUNIT,ADU ZONE CORE SPACE - STORY TOP VAV TERMINAL,AIRTERMINAL:SINGLEDUCT:VAV:REHEAT,ZONE CORE SPACE - STORY TOP VAV TERMINAL,ZONE CORE SPACE - STORY TOP VAV TERMINAL INLET AIR NODE,ZONE CORE SPACE - STORY TOP VAV TERMINAL OUTLET AIR NODE,Air Nodes
 Component Set,88,ZONEHVAC:AIRDISTRIBUTIONUNIT,ADU ZONE EAST PERIMETER SPACE - STORY GROUND PSZ-AC DIFFUSER,AIRTERMINAL:SINGLEDUCT:CONSTANTVOLUME:NOREHEAT,ZONE EAST PERIMETER SPACE - STORY GROUND PSZ-AC DIFFUSER,ZONE EAST PERIMETER SPACE - STORY GROUND PSZ-AC DIFFUSER INLET AIR NODE,ZONE EAST PERIMETER SPACE - STORY GROUND PSZ-AC DIFFUSER OUTLET AIR NODE,Air Nodes
 Component Set,89,ZONEHVAC:AIRDISTRIBUTIONUNIT,ADU ZONE EAST PERIMETER SPACE - STORY MID VAV TERMINAL,AIRTERMINAL:SINGLEDUCT:VAV:REHEAT,ZONE EAST PERIMETER SPACE - STORY MID VAV TERMINAL,ZONE EAST PERIMETER SPACE - STORY MID VAV TERMINAL INLET AIR NODE,ZONE EAST PERIMETER SPACE - STORY MID VAV TERMINAL OUTLET AIR NODE,Air Nodes
 Component Set,90,ZONEHVAC:AIRDISTRIBUTIONUNIT,ADU ZONE EAST PERIMETER SPACE - STORY TOP VAV TERMINAL,AIRTERMINAL:SINGLEDUCT:VAV:REHEAT,ZONE EAST PERIMETER SPACE - STORY TOP VAV TERMINAL,ZONE EAST PERIMETER SPACE - STORY TOP VAV TERMINAL INLET AIR NODE,ZONE EAST PERIMETER SPACE - STORY TOP VAV TERMINAL OUTLET AIR NODE,Air Nodes
 Component Set,91,ZONEHVAC:AIRDISTRIBUTIONUNIT,ADU ZONE NORTH PERIMETER SPACE - STORY GROUND PSZ-AC DIFFUSER,AIRTERMINAL:SINGLEDUCT:CONSTANTVOLUME:NOREHEAT,ZONE NORTH PERIMETER SPACE - STORY GROUND PSZ-AC DIFFUSER,ZONE NORTH PERIMETER SPACE - STORY GROUND PSZ-AC DIFFUSER INLET AIR NODE,ZONE NORTH PERIMETER SPACE - STORY GROUND PSZ-AC DIFFUSER OUTLET AIR NODE,Air Nodes
 Component Set,92,ZONEHVAC:AIRDISTRIBUTIONUNIT,ADU ZONE NORTH PERIMETER SPACE - STORY MID VAV TERMINAL,AIRTERMINAL:SINGLEDUCT:VAV:REHEAT,ZONE NORTH PERIMETER SPACE - STORY MID VAV TERMINAL,ZONE NORTH PERIMETER SPACE - STORY MID VAV TERMINAL INLET AIR NODE,ZONE NORTH PERIMETER SPACE - STORY MID VAV TERMINAL OUTLET AIR NODE,Air Nodes
 Component Set,93,ZONEHVAC:AIRDISTRIBUTIONUNIT,ADU ZONE NORTH PERIMETER SPACE - STORY TOP VAV TERMINAL,AIRTERMINAL:SINGLEDUCT:VAV:REHEAT,ZONE NORTH PERIMETER SPACE - STORY TOP VAV TERMINAL,ZONE NORTH PERIMETER SPACE - STORY TOP VAV TERMINAL INLET AIR NODE,ZONE NORTH PERIMETER SPACE - STORY TOP VAV TERMINAL OUTLET AIR NODE,Air Nodes
 Component Set,94,ZONEHVAC:AIRDISTRIBUTIONUNIT,ADU ZONE SOUTH PERIMETER SPACE - STORY GROUND PSZ-AC DIFFUSER,AIRTERMINAL:SINGLEDUCT:CONSTANTVOLUME:NOREHEAT,ZONE SOUTH PERIMETER SPACE - STORY GROUND PSZ-AC DIFFUSER,ZONE SOUTH PERIMETER SPACE - STORY GROUND PSZ-AC DIFFUSER INLET AIR NODE,ZONE SOUTH PERIMETER SPACE - STORY GROUND PSZ-AC DIFFUSER OUTLET AIR NODE,Air Nodes
 Component Set,95,ZONEHVAC:AIRDISTRIBUTIONUNIT,ADU ZONE SOUTH PERIMETER SPACE - STORY MID VAV TERMINAL,AIRTERMINAL:SINGLEDUCT:VAV:REHEAT,ZONE SOUTH PERIMETER SPACE - STORY MID VAV TERMINAL,ZONE SOUTH PERIMETER SPACE - STORY MID VAV TERMINAL INLET AIR NODE,ZONE SOUTH PERIMETER SPACE - STORY MID VAV TERMINAL OUTLET AIR NODE,Air Nodes
 Component Set,96,ZONEHVAC:AIRDISTRIBUTIONUNIT,ADU ZONE SOUTH PERIMETER SPACE - STORY TOP VAV TERMINAL,AIRTERMINAL:SINGLEDUCT:VAV:REHEAT,ZONE SOUTH PERIMETER SPACE - STORY TOP VAV TERMINAL,ZONE SOUTH PERIMETER SPACE - STORY TOP VAV TERMINAL INLET AIR NODE,ZONE SOUTH PERIMETER SPACE - STORY TOP VAV TERMINAL OUTLET AIR NODE,Air Nodes
 Component Set,97,ZONEHVAC:AIRDISTRIBUTIONUNIT,ADU ZONE WEST PERIMETER SPACE - STORY GROUND PSZ-AC DIFFUSER,AIRTERMINAL:SINGLEDUCT:CONSTANTVOLUME:NOREHEAT,ZONE WEST PERIMETER SPACE - STORY GROUND PSZ-AC DIFFUSER,ZONE WEST PERIMETER SPACE - STORY GROUND PSZ-AC DIFFUSER INLET AIR NODE,ZONE WEST PERIMETER SPACE - STORY GROUND PSZ-AC DIFFUSER OUTLET AIR NODE,Air Nodes
 Component Set,98,ZONEHVAC:AIRDISTRIBUTIONUNIT,ADU ZONE WEST PERIMETER SPACE - STORY MID VAV TERMINAL,AIRTERMINAL:SINGLEDUCT:VAV:REHEAT,ZONE WEST PERIMETER SPACE - STORY MID VAV TERMINAL,ZONE WEST PERIMETER SPACE - STORY MID VAV TERMINAL INLET AIR NODE,ZONE WEST PERIMETER SPACE - STORY MID VAV TERMINAL OUTLET AIR NODE,Air Nodes
 Component Set,99,ZONEHVAC:AIRDISTRIBUTIONUNIT,ADU ZONE WEST PERIMETER SPACE - STORY TOP VAV TERMINAL,AIRTERMINAL:SINGLEDUCT:VAV:REHEAT,ZONE WEST PERIMETER SPACE - STORY TOP VAV TERMINAL,ZONE WEST PERIMETER SPACE - STORY TOP VAV TERMINAL INLET AIR NODE,ZONE WEST PERIMETER SPACE - STORY TOP VAV TERMINAL OUTLET AIR NODE,Air Nodes
 Component Set,100,AIRTERMINAL:SINGLEDUCT:VAV:REHEAT,ZONE CORE SPACE - STORY GROUND VAV TERMINAL,COIL:HEATING:WATER,ZONE CORE SPACE - STORY GROUND REHEAT COIL,ZONE CORE SPACE - STORY GROUND VAV TERMINAL DAMPER OUTLET,ZONE CORE SPACE - STORY GROUND VAV TERMINAL OUTLET AIR NODE,Air Nodes
 Component Set,101,AIRTERMINAL:SINGLEDUCT:VAV:REHEAT,ZONE CORE SPACE - STORY MID VAV TERMINAL,COIL:HEATING:WATER,ZONE CORE SPACE - STORY MID REHEAT COIL,ZONE CORE SPACE - STORY MID VAV TERMINAL DAMPER OUTLET,ZONE CORE SPACE - STORY MID VAV TERMINAL OUTLET AIR NODE,Air Nodes
 Component Set,102,AIRTERMINAL:SINGLEDUCT:VAV:REHEAT,ZONE CORE SPACE - STORY TOP VAV TERMINAL,COIL:HEATING:WATER,ZONE CORE SPACE - STORY TOP REHEAT COIL,ZONE CORE SPACE - STORY TOP VAV TERMINAL DAMPER OUTLET,ZONE CORE SPACE - STORY TOP VAV TERMINAL OUTLET AIR NODE,Air Nodes
 Component Set,103,AIRTERMINAL:SINGLEDUCT:VAV:REHEAT,ZONE EAST PERIMETER SPACE - STORY MID VAV TERMINAL,COIL:HEATING:WATER,ZONE EAST PERIMETER SPACE - STORY MID REHEAT COIL,ZONE EAST PERIMETER SPACE - STORY MID VAV TERMINAL DAMPER OUTLET,ZONE EAST PERIMETER SPACE - STORY MID VAV TERMINAL OUTLET AIR NODE,Air Nodes
[...]
 Non-Parent Node Connection,ZONE WEST PERIMETER SPACE - STORY GROUND RETURN AIR NODE,AIRLOOPHVAC:ZONEMIXER,AIR LOOP HVAC ZONE MIXER 5,Inlet,1
 Non-Parent Node Connection,1 ZONE VAV MIXED AIR NODE,OUTDOORAIR:MIXER,1 ZONE VAV OA SYSTEM OUTDOOR AIR MIXER,Outlet,1
 Non-Parent Node Connection,1 ZONE VAV OUTDOOR AIR NODE,OUTDOORAIR:MIXER,1 ZONE VAV OA SYSTEM OUTDOOR AIR MIXER,Inlet,1
 Non-Parent Node Connection,1 ZONE VAV RELIEF AIR NODE,OUTDOORAIR:MIXER,1 ZONE VAV OA SYSTEM OUTDOOR AIR MIXER,ReliefAir,1
 Non-Parent Node Connection,1 ZONE VAV SUPPLY INLET NODE,OUTDOORAIR:MIXER,1 ZONE VAV OA SYSTEM OUTDOOR AIR MIXER,Inlet,1
 Non-Parent Node Connection,5 ZONE VAV MIXED AIR NODE,OUTDOORAIR:MIXER,5 ZONE VAV OA SYSTEM OUTDOOR AIR MIXER,Outlet,1
 Non-Parent Node Connection,NODE 2,OUTDOORAIR:MIXER,5 ZONE VAV OA SYSTEM OUTDOOR AIR MIXER,Inlet,1
 Non-Parent Node Connection,NODE 3,OUTDOORAIR:MIXER,5 ZONE VAV OA SYSTEM OUTDOOR AIR MIXER,ReliefAir,1
 Non-Parent Node Connection,5 ZONE VAV SUPPLY INLET NODE,OUTDOORAIR:MIXER,5 ZONE VAV OA SYSTEM OUTDOOR AIR MIXER,Inlet,1
 Non-Parent Node Connection,5 ZONE VAV 1 MIXED AIR NODE,OUTDOORAIR:MIXER,5 ZONE VAV 1 OA SYSTEM OUTDOOR AIR MIXER,Outlet,1
 Non-Parent Node Connection,5 ZONE VAV 1 OUTDOOR AIR NODE,OUTDOORAIR:MIXER,5 ZONE VAV 1 OA SYSTEM OUTDOOR AIR MIXER,Inlet,1
 Non-Parent Node Connection,5 ZONE VAV 1 RELIEF AIR NODE,OUTDOORAIR:MIXER,5 ZONE VAV 1 OA SYSTEM OUTDOOR AIR MIXER,ReliefAir,1
 Non-Parent Node Connection,5 ZONE VAV 1 SUPPLY INLET NODE,OUTDOORAIR:MIXER,5 ZONE VAV 1 OA SYSTEM OUTDOOR AIR MIXER,Inlet,1
 Non-Parent Node Connection,ZONE EAST PERIMETER SPACE - STORY GROUND PSZ-AC MIXED AIR NODE,OUTDOORAIR:MIXER,ZONE EAST PERIMETER SPACE - STORY GROUND PSZ-AC OA SYSTEM OUTDOOR AIR MIXER,Outlet,1
 Non-Parent Node Connection,ZONE EAST PERIMETER SPACE - STORY GROUND PSZ-AC OUTDOOR AIR NODE,OUTDOORAIR:MIXER,ZONE EAST PERIMETER SPACE - STORY GROUND PSZ-AC OA SYSTEM OUTDOOR AIR MIXER,Inlet,1
 Non-Parent Node Connection,ZONE EAST PERIMETER SPACE - STORY GROUND PSZ-AC RELIEF AIR NODE,OUTDOORAIR:MIXER,ZONE EAST PERIMETER SPACE - STORY GROUND PSZ-AC OA SYSTEM OUTDOOR AIR MIXER,ReliefAir,1
 Non-Parent Node Connection,ZONE EAST PERIMETER SPACE - STORY GROUND PSZ-AC SUPPLY INLET NODE,OUTDOORAIR:MIXER,ZONE EAST PERIMETER SPACE - STORY GROUND PSZ-AC OA SYSTEM OUTDOOR AIR MIXER,Inlet,1
 Non-Parent Node Connection,ZONE NORTH PERIMETER SPACE - STORY GROUND PSZ-AC MIXED AIR NODE,OUTDOORAIR:MIXER,ZONE NORTH PERIMETER SPACE - STORY GROUND PSZ-AC OA SYSTEM OUTDOOR AIR MIXER,Outlet,1
 Non-Parent Node Connection,ZONE NORTH PERIMETER SPACE - STORY GROUND PSZ-AC OUTDOOR AIR NODE,OUTDOORAIR:MIXER,ZONE NORTH PERIMETER SPACE - STORY GROUND PSZ-AC OA SYSTEM OUTDOOR AIR MIXER,Inlet,1
 Non-Parent Node Connection,ZONE NORTH PERIMETER SPACE - STORY GROUND PSZ-AC RELIEF AIR NODE,OUTDOORAIR:MIXER,ZONE NORTH PERIMETER SPACE - STORY GROUND PSZ-AC OA SYSTEM OUTDOOR AIR MIXER,ReliefAir,1
 Non-Parent Node Connection,ZONE NORTH PERIMETER SPACE - STORY GROUND PSZ-AC SUPPLY INLET NODE,OUTDOORAIR:MIXER,ZONE NORTH PERIMETER SPACE - STORY GROUND PSZ-AC OA SYSTEM OUTDOOR AIR MIXER,Inlet,1
 Non-Parent Node Connection,ZONE SOUTH PERIMETER SPACE - STORY GROUND PSZ-AC MIXED AIR NODE,OUTDOORAIR:MIXER,ZONE SOUTH PERIMETER SPACE - STORY GROUND PSZ-AC OA SYSTEM OUTDOOR AIR MIXER,Outlet,1
 Non-Parent Node Connection,ZONE SOUTH PERIMETER SPACE - STORY GROUND PSZ-AC OUTDOOR AIR NODE,OUTDOORAIR:MIXER,ZONE SOUTH PERIMETER SPACE - STORY GROUND PSZ-AC OA SYSTEM OUTDOOR AIR MIXER,Inlet,1
 Non-Parent Node Connection,ZONE SOUTH PERIMETER SPACE - STORY GROUND PSZ-AC RELIEF AIR NODE,OUTDOORAIR:MIXER,ZONE SOUTH PERIMETER SPACE - STORY GROUND PSZ-AC OA SYSTEM OUTDOOR AIR MIXER,ReliefAir,1
 Non-Parent Node Connection,ZONE SOUTH PERIMETER SPACE - STORY GROUND PSZ-AC SUPPLY INLET NODE,OUTDOORAIR:MIXER,ZONE SOUTH PERIMETER SPACE - STORY GROUND PSZ-AC OA SYSTEM OUTDOOR AIR MIXER,Inlet,1
 Non-Parent Node Connection,ZONE WEST PERIMETER SPACE - STORY GROUND PSZ-AC MIXED AIR NODE,OUTDOORAIR:MIXER,ZONE WEST PERIMETER SPACE - STORY GROUND PSZ-AC OA SYSTEM OUTDOOR AIR MIXER,Outlet,1
 Non-Parent Node Connection,ZONE WEST PERIMETER SPACE - STORY GROUND PSZ-AC OUTDOOR AIR NODE,OUTDOORAIR:MIXER,ZONE WEST PERIMETER SPACE - STORY GROUND PSZ-AC OA SYSTEM OUTDOOR AIR MIXER,Inlet,1
 Non-Parent Node Connection,ZONE WEST PERIMETER SPACE - STORY GROUND PSZ-AC RELIEF AIR NODE,OUTDOORAIR:MIXER,ZONE WEST PERIMETER SPACE - STORY GROUND PSZ-AC OA SYSTEM OUTDOOR AIR MIXER,ReliefAir,1
 Non-Parent Node Connection,ZONE WEST PERIMETER SPACE - STORY GROUND PSZ-AC SUPPLY INLET NODE,OUTDOORAIR:MIXER,ZONE WEST PERIMETER SPACE - STORY GROUND PSZ-AC OA SYSTEM OUTDOOR AIR MIXER,Inlet,1
 Non-Parent Node Connection,ZONE EAST PERIMETER SPACE - STORY GROUND PSZ-AC ELECTRIC BACKUP HTG COIL OUTLET AIR NODE,FAN:CONSTANTVOLUME,ZONE EAST PERIMETER SPACE - STORY GROUND PSZ-AC FAN,Inlet,1
 Non-Parent Node Connection,ZONE EAST PERIMETER SPACE - STORY GROUND PSZ-AC SUPPLY OUTLET NODE,FAN:CONSTANTVOLUME,ZONE EAST PERIMETER SPACE - STORY GROUND PSZ-AC FAN,Outlet,1
 Non-Parent Node Connection,ZONE NORTH PERIMETER SPACE - STORY GROUND PSZ-AC ELECTRIC BACKUP HTG COIL OUTLET AIR NODE,FAN:CONSTANTVOLUME,ZONE NORTH PERIMETER SPACE - STORY GROUND PSZ-AC FAN,Inlet,1
 Non-Parent Node Connection,ZONE NORTH PERIMETER SPACE - STORY GROUND PSZ-AC SUPPLY OUTLET NODE,FAN:CONSTANTVOLUME,ZONE NORTH PERIMETER SPACE - STORY GROUND PSZ-AC FAN,Outlet,1
 Non-Parent Node Connection,ZONE SOUTH PERIMETER SPACE - STORY GROUND PSZ-AC ELECTRIC BACKUP HTG COIL OUTLET AIR NODE,FAN:CONSTANTVOLUME,ZONE SOUTH PERIMETER SPACE - STORY GROUND PSZ-AC FAN,Inlet,1
 Non-Parent Node Connection,ZONE SOUTH PERIMETER SPACE - STORY GROUND PSZ-AC SUPPLY OUTLET NODE,FAN:CONSTANTVOLUME,ZONE SOUTH PERIMETER SPACE - STORY GROUND PSZ-AC FAN,Outlet,1
 Non-Parent Node Connection,ZONE WEST PERIMETER SPACE - STORY GROUND PSZ-AC ELECTRIC BACKUP HTG COIL OUTLET AIR NODE,FAN:CONSTANTVOLUME,ZONE WEST PERIMETER SPACE - STORY GROUND PSZ-AC FAN,Inlet,1
 Non-Parent Node Connection,ZONE WEST PERIMETER SPACE - STORY GROUND PSZ-AC SUPPLY OUTLET NODE,FAN:CONSTANTVOLUME,ZONE WEST PERIMETER SPACE - STORY GROUND PSZ-AC FAN,Outlet,1
 Non-Parent Node Connection,1 ZONE VAV MAIN HTG COIL OUTLET AIR NODE,FAN:VARIABLEVOLUME,1 ZONE VAV FAN,Inlet,1
 Non-Parent Node Connection,1 ZONE VAV SUPPLY OUTLET NODE,FAN:VARIABLEVOLUME,1 ZONE VAV FAN,Outlet,1
 Non-Parent Node Connection,5 ZONE VAV MAIN HTG COIL OUTLET AIR NODE,FAN:VARIABLEVOLUME,5 ZONE VAV FAN,Inlet,1
 Non-Parent Node Connection,5 ZONE VAV SUPPLY OUTLET NODE,FAN:VARIABLEVOLUME,5 ZONE VAV FAN,Outlet,1
 Non-Parent Node Connection,5 ZONE VAV 1 MAIN HTG COIL OUTLET AIR NODE,FAN:VARIABLEVOLUME,5 ZONE VAV 1 FAN,Inlet,1
 Non-Parent Node Connection,5 ZONE VAV 1 SUPPLY OUTLET NODE,FAN:VARIABLEVOLUME,5 ZONE VAV 1 FAN,Outlet,1
 Non-Parent Node Connection,1 ZONE VAV MIXED AIR NODE,CONTROLLER:OUTDOORAIR,1 ZONE VAV OA CONTROLLER,Sensor,1
 Non-Parent Node Connection,1 ZONE VAV OUTDOOR AIR NODE,CONTROLLER:OUTDOORAIR,1 ZONE VAV OA CONTROLLER,Actuator,1
 Non-Parent Node Connection,1 ZONE VAV RELIEF AIR NODE,CONTROLLER:OUTDOORAIR,1 ZONE VAV OA CONTROLLER,Actuator,1
 Non-Parent Node Connection,1 ZONE VAV SUPPLY INLET NODE,CONTROLLER:OUTDOORAIR,1 ZONE VAV OA CONTROLLER,Sensor,1
 Non-Parent Node Connection,5 ZONE VAV MIXED AIR NODE,CONTROLLER:OUTDOORAIR,5 ZONE VAV OA CONTROLLER,Sensor,1
 Non-Parent Node Connection,5 ZONE VAV OUTDOOR AIR NODE,CONTROLLER:OUTDOORAIR,5 ZONE VAV OA CONTROLLER,Actuator,1
 Non-Parent Node Connection,NODE 3,CONTROLLER:OUTDOORAIR,5 ZONE VAV OA CONTROLLER,Actuator,1
 Non-Parent Node Connection,5 ZONE VAV SUPPLY INLET NODE,CONTROLLER:OUTDOORAIR,5 ZONE VAV OA CONTROLLER,Sensor,1
 Non-Parent Node Connection,5 ZONE VAV 1 MIXED AIR NODE,CONTROLLER:OUTDOORAIR,5 ZONE VAV 1 OA CONTROLLER,Sensor,1
 Non-Parent Node Connection,5 ZONE VAV 1 OUTDOOR AIR NODE,CONTROLLER:OUTDOORAIR,5 ZONE VAV 1 OA CONTROLLER,Actuator,1
 Non-Parent Node Connection,5 ZONE VAV 1 RELIEF AIR NODE,CONTROLLER:OUTDOORAIR,5 ZONE VAV 1 OA CONTROLLER,Actuator,1
 Non-Parent Node Connection,5 ZONE VAV 1 SUPPLY INLET NODE,CONTROLLER:OUTDOORAIR,5 ZONE VAV 1 OA CONTROLLER,Sensor,1
 Non-Parent Node Connection,ZONE EAST PERIMETER SPACE - STORY GROUND PSZ-AC MIXED AIR NODE,CONTROLLER:OUTDOORAIR,ZONE EAST PERIMETER SPACE - STORY GROUND PSZ-AC OA SYSTEM CONTROLLER,Sensor,1
 Non-Parent Node Connection,ZONE EAST PERIMETER SPACE - STORY GROUND PSZ-AC OUTDOOR AIR NODE,CONTROLLER:OUTDOORAIR,ZONE EAST PERIMETER SPACE - STORY GROUND PSZ-AC OA SYSTEM CONTROLLER,Actuator,1
 Non-Parent Node Connection,ZONE EAST PERIMETER SPACE - STORY GROUND PSZ-AC RELIEF AIR NODE,CONTROLLER:OUTDOORAIR,ZONE EAST PERIMETER SPACE - STORY GROUND PSZ-AC OA SYSTEM CONTROLLER,Actuator,1
 Non-Parent Node Connection,ZONE EAST PERIMETER SPACE - STORY GROUND PSZ-AC SUPPLY INLET NODE,CONTROLLER:OUTDOORAIR,ZONE EAST PERIMETER SPACE - STORY GROUND PSZ-AC OA SYSTEM CONTROLLER,Sensor,1
 Non-Parent Node Connection,ZONE NORTH PERIMETER SPACE - STORY GROUND PSZ-AC MIXED AIR NODE,CONTROLLER:OUTDOORAIR,ZONE NORTH PERIMETER SPACE - STORY GROUND PSZ-AC OA SYSTEM CONTROLLER,Sensor,1
 Non-Parent Node Connection,ZONE NORTH PERIMETER SPACE - STORY GROUND PSZ-AC OUTDOOR AIR NODE,CONTROLLER:OUTDOORAIR,ZONE NORTH PERIMETER SPACE - STORY GROUND PSZ-AC OA SYSTEM CONTROLLER,Actuator,1
 Non-Parent Node Connection,ZONE NORTH PERIMETER SPACE - STORY GROUND PSZ-AC RELIEF AIR NODE,CONTROLLER:OUTDOORAIR,ZONE NORTH PERIMETER SPACE - STORY GROUND PSZ-AC OA SYSTEM CONTROLLER,Actuator,1
 Non-Parent Node Connection,ZONE NORTH PERIMETER SPACE - STORY GROUND PSZ-AC SUPPLY INLET NODE,CONTROLLER:OUTDOORAIR,ZONE NORTH PERIMETER SPACE - STORY GROUND PSZ-AC OA SYSTEM CONTROLLER,Sensor,1
 Non-Parent Node Connection,ZONE SOUTH PERIMETER SPACE - STORY GROUND PSZ-AC MIXED AIR NODE,CONTROLLER:OUTDOORAIR,ZONE SOUTH PERIMETER SPACE - STORY GROUND PSZ-AC OA SYSTEM CONTROLLER,Sensor,1
 Non-Parent Node Connection,ZONE SOUTH PERIMETER SPACE - STORY GROUND PSZ-AC OUTDOOR AIR NODE,CONTROLLER:OUTDOORAIR,ZONE SOUTH PERIMETER SPACE - STORY GROUND PSZ-AC OA SYSTEM CONTROLLER,Actuator,1
 Non-Parent Node Connection,ZONE SOUTH PERIMETER SPACE - STORY GROUND PSZ-AC RELIEF AIR NODE,CONTROLLER:OUTDOORAIR,ZONE SOUTH PERIMETER SPACE - STORY GROUND PSZ-AC OA SYSTEM CONTROLLER,Actuator,1
 Non-Parent Node Connection,ZONE SOUTH PERIMETER SPACE - STORY GROUND PSZ-AC SUPPLY INLET NODE,CONTROLLER:OUTDOORAIR,ZONE SOUTH PERIMETER SPACE - STORY GROUND PSZ-AC OA SYSTEM CONTROLLER,Sensor,1
 Non-Parent Node Connection,ZONE WEST PERIMETER SPACE - STORY GROUND PSZ-AC MIXED AIR NODE,CONTROLLER:OUTDOORAIR,ZONE WEST PERIMETER SPACE - STORY GROUND PSZ-AC OA SYSTEM CONTROLLER,Sensor,1
 Non-Parent Node Connection,ZONE WEST PERIMETER SPACE - STORY GROUND PSZ-AC OUTDOOR AIR NODE,CONTROLLER:OUTDOORAIR,ZONE WEST PERIMETER SPACE - STORY GROUND PSZ-AC OA SYSTEM CONTROLLER,Actuator,1
 Non-Parent Node Connection,ZONE WEST PERIMETER SPACE - STORY GROUND PSZ-AC RELIEF AIR NODE,CONTROLLER:OUTDOORAIR,ZONE WEST PERIMETER SPACE - STORY GROUND PSZ-AC OA SYSTEM CONTROLLER,Actuator,1
 Non-Parent Node Connection,ZONE WEST PERIMETER SPACE - STORY GROUND PSZ-AC SUPPLY INLET NODE,CONTROLLER:OUTDOORAIR,ZONE WEST PERIMETER SPACE - STORY GROUND PSZ-AC OA SYSTEM CONTROLLER,Sensor,1
 Non-Parent Node Connection,5 ZONE VAV OUTDOOR AIR NODE,HEATEXCHANGER:AIRTOAIR:SENSIBLEANDLATENT,5 ZONE VAV ERV,Inlet,1
 Non-Parent Node Connection,NODE 2,HEATEXCHANGER:AIRTOAIR:SENSIBLEANDLATENT,5 ZONE VAV ERV,Outlet,1
 Non-Parent Node Connection,NODE 3,HEATEXCHANGER:AIRTOAIR:SENSIBLEANDLATENT,5 ZONE VAV ERV,Inlet,2
 Non-Parent Node Connection,5 ZONE VAV RELIEF AIR NODE,HEATEXCHANGER:AIRTOAIR:SENSIBLEANDLATENT,5 ZONE VAV ERV,Outlet,2
 Non-Parent Node Connection,ZONE EAST PERIMETER SPACE - STORY GROUND PSZ-AC MIXED AIR NODE,COIL:COOLING:DX:SINGLESPEED,ZONE EAST PERIMETER SPACE - STORY GROUND PSZ-AC 1SPD DX AC CLG COIL 129KBTU/HR 11.0EER,Inlet,1
 Non-Parent Node Connection,ZONE EAST PERIMETER SPACE - STORY GROUND PSZ-AC 1SPD DX AC CLG COIL OUTLET AIR NODE,COIL:COOLING:DX:SINGLESPEED,ZONE EAST PERIMETER SPACE - STORY GROUND PSZ-AC 1SPD DX AC CLG COIL 129KBTU/HR 11.0EER,Outlet,1
 Non-Parent Node Connection,ZONE NORTH PERIMETER SPACE - STORY GROUND PSZ-AC MIXED AIR NODE,COIL:COOLING:DX:SINGLESPEED,ZONE NORTH PERIMETER SPACE - STORY GROUND PSZ-AC 1SPD DX AC CLG COIL 89KBTU/HR 11.0EER,Inlet,1
 Non-Parent Node Connection,ZONE NORTH PERIMETER SPACE - STORY GROUND PSZ-AC 1SPD DX AC CLG COIL OUTLET AIR NODE,COIL:COOLING:DX:SINGLESPEED,ZONE NORTH PERIMETER SPACE - STORY GROUND PSZ-AC 1SPD DX AC CLG COIL 89KBTU/HR 11.0EER,Outlet,1
 Non-Parent Node Connection,ZONE SOUTH PERIMETER SPACE - STORY GROUND PSZ-AC MIXED AIR NODE,COIL:COOLING:DX:SINGLESPEED,ZONE SOUTH PERIMETER SPACE - STORY GROUND PSZ-AC 1SPD DX AC CLG COIL 113KBTU/HR 11.0EER,Inlet,1
 Non-Parent Node Connection,ZONE SOUTH PERIMETER SPACE - STORY GROUND PSZ-AC 1SPD DX AC CLG COIL OUTLET AIR NODE,COIL:COOLING:DX:SINGLESPEED,ZONE SOUTH PERIMETER SPACE - STORY GROUND PSZ-AC 1SPD DX AC CLG COIL 113KBTU/HR 11.0EER,Outlet,1
 Non-Parent Node Connection,ZONE WEST PERIMETER SPACE - STORY GROUND PSZ-AC MIXED AIR NODE,COIL:COOLING:DX:SINGLESPEED,ZONE WEST PERIMETER SPACE - STORY GROUND PSZ-AC 1SPD DX AC CLG COIL 146KBTU/HR 10.8EER,Inlet,1
 Non-Parent Node Connection,ZONE WEST PERIMETER SPACE - STORY GROUND PSZ-AC 1SPD DX AC CLG COIL OUTLET AIR NODE,COIL:COOLING:DX:SINGLESPEED,ZONE WEST PERIMETER SPACE - STORY GROUND PSZ-AC 1SPD DX AC CLG COIL 146KBTU/HR 10.8EER,Outlet,1
 Non-Parent Node Connection,ZONE EAST PERIMETER SPACE - STORY GROUND PSZ-AC GAS HTG COIL OUTLET AIR NODE,COIL:HEATING:ELECTRIC,ZONE EAST PERIMETER SPACE - STORY GROUND PSZ-AC ELECTRIC BACKUP HTG COIL,Inlet,1
 Non-Parent Node Connection,ZONE EAST PERIMETER SPACE - STORY GROUND PSZ-AC ELECTRIC BACKUP HTG COIL OUTLET AIR NODE,COIL:HEATING:ELECTRIC,ZONE EAST PERIMETER SPACE - STORY GROUND PSZ-AC ELECTRIC BACKUP HTG COIL,Outlet,1
 Non-Parent Node Connection,ZONE EAST PERIMETER SPACE - STORY GROUND PSZ-AC ELECTRIC BACKUP HTG COIL OUTLET AIR NODE,COIL:HEATING:ELECTRIC,ZONE EAST PERIMETER SPACE - STORY GROUND PSZ-AC ELECTRIC BACKUP HTG COIL,Sensor,1
 Non-Parent Node Connection,ZONE NORTH PERIMETER SPACE - STORY GROUND PSZ-AC GAS HTG COIL OUTLET AIR NODE,COIL:HEATING:ELECTRIC,ZONE NORTH PERIMETER SPACE - STORY GROUND PSZ-AC ELECTRIC BACKUP HTG COIL,Inlet,1
 Non-Parent Node Connection,ZONE NORTH PERIMETER SPACE - STORY GROUND PSZ-AC ELECTRIC BACKUP HTG COIL OUTLET AIR NODE,COIL:HEATING:ELECTRIC,ZONE NORTH PERIMETER SPACE - STORY GROUND PSZ-AC ELECTRIC BACKUP HTG COIL,Outlet,1
 Non-Parent Node Connection,ZONE NORTH PERIMETER SPACE - STORY GROUND PSZ-AC ELECTRIC BACKUP HTG COIL OUTLET AIR NODE,COIL:HEATING:ELECTRIC,ZONE NORTH PERIMETER SPACE - STORY GROUND PSZ-AC ELECTRIC BACKUP HTG COIL,Sensor,1
 Non-Parent Node Connection,ZONE SOUTH PERIMETER SPACE - STORY GROUND PSZ-AC GAS HTG COIL OUTLET AIR NODE,COIL:HEATING:ELECTRIC,ZONE SOUTH PERIMETER SPACE - STORY GROUND PSZ-AC ELECTRIC BACKUP HTG COIL,Inlet,1
 Non-Parent Node Connection,ZONE SOUTH PERIMETER SPACE - STORY GROUND PSZ-AC ELECTRIC BACKUP HTG COIL OUTLET AIR NODE,COIL:HEATING:ELECTRIC,ZONE SOUTH PERIMETER SPACE - STORY GROUND PSZ-AC ELECTRIC BACKUP HTG COIL,Outlet,1
 Non-Parent Node Connection,ZONE SOUTH PERIMETER SPACE - STORY GROUND PSZ-AC ELECTRIC BACKUP HTG COIL OUTLET AIR NODE,COIL:HEATING:ELECTRIC,ZONE SOUTH PERIMETER SPACE - STORY GROUND PSZ-AC ELECTRIC BACKUP HTG COIL,Sensor,1
 Non-Parent Node Connection,ZONE WEST PERIMETER SPACE - STORY GROUND PSZ-AC GAS HTG COIL OUTLET AIR NODE,COIL:HEATING:ELECTRIC,ZONE WEST PERIMETER SPACE - STORY GROUND PSZ-AC ELECTRIC BACKUP HTG COIL,Inlet,1
 Non-Parent Node Connection,ZONE WEST PERIMETER SPACE - STORY GROUND PSZ-AC ELECTRIC BACKUP HTG COIL OUTLET AIR NODE,COIL:HEATING:ELECTRIC,ZONE WEST PERIMETER SPACE - STORY GROUND PSZ-AC ELECTRIC BACKUP HTG COIL,Outlet,1
 Non-Parent Node Connection,ZONE WEST PERIMETER SPACE - STORY GROUND PSZ-AC ELECTRIC BACKUP HTG COIL OUTLET AIR NODE,COIL:HEATING:ELECTRIC,ZONE WEST PERIMETER SPACE - STORY GROUND PSZ-AC ELECTRIC BACKUP HTG COIL,Sensor,1
 Non-Parent Node Connection,ZONE EAST PERIMETER SPACE - STORY GROUND PSZ-AC 1SPD DX AC CLG COIL OUTLET AIR NODE,COIL:HEATING:FUEL,ZONE EAST PERIMETER SPACE - STORY GROUND PSZ-AC GAS HTG COIL,Inlet,1
 Non-Parent Node Connection,ZONE EAST PERIMETER SPACE - STORY GROUND PSZ-AC GAS HTG COIL OUTLET AIR NODE,COIL:HEATING:FUEL,ZONE EAST PERIMETER SPACE - STORY GROUND PSZ-AC GAS HTG COIL,Outlet,1
 Non-Parent Node Connection,ZONE EAST PERIMETER SPACE - STORY GROUND PSZ-AC GAS HTG COIL OUTLET AIR NODE,COIL:HEATING:FUEL,ZONE EAST PERIMETER SPACE - STORY GROUND PSZ-AC GAS HTG COIL,Sensor,1
 Non-Parent Node Connection,ZONE NORTH PERIMETER SPACE - STORY GROUND PSZ-AC 1SPD DX AC CLG COIL OUTLET AIR NODE,COIL:HEATING:FUEL,ZONE NORTH PERIMETER SPACE - STORY GROUND PSZ-AC GAS HTG COIL,Inlet,1
 Non-Parent Node Connection,ZONE NORTH PERIMETER SPACE - STORY GROUND PSZ-AC GAS HTG COIL OUTLET AIR NODE,COIL:HEATING:FUEL,ZONE NORTH PERIMETER SPACE - STORY GROUND PSZ-AC GAS HTG COIL,Outlet,1
 Non-Parent Node Connection,ZONE NORTH PERIMETER SPACE - STORY GROUND PSZ-AC GAS HTG COIL OUTLET AIR NODE,COIL:HEATING:FUEL,ZONE NORTH PERIMETER SPACE - STORY GROUND PSZ-AC GAS HTG COIL,Sensor,1
 Non-Parent Node Connection,ZONE SOUTH PERIMETER SPACE - STORY GROUND PSZ-AC 1SPD DX AC CLG COIL OUTLET AIR NODE,COIL:HEATING:FUEL,ZONE SOUTH PERIMETER SPACE - STORY GROUND PSZ-AC GAS HTG COIL,Inlet,1
 Non-Parent Node Connection,ZONE SOUTH PERIMETER SPACE - STORY GROUND PSZ-AC GAS HTG COIL OUTLET AIR NODE,COIL:HEATING:FUEL,ZONE SOUTH PERIMETER SPACE - STORY GROUND PSZ-AC GAS HTG COIL,Outlet,1
 Non-Parent Node Connection,ZONE SOUTH PERIMETER SPACE - STORY GROUND PSZ-AC GAS HTG COIL OUTLET AIR NODE,COIL:HEATING:FUEL,ZONE SOUTH PERIMETER SPACE - STORY GROUND PSZ-AC GAS HTG COIL,Sensor,1
 Non-Parent Node Connection,ZONE WEST PERIMETER SPACE - STORY GROUND PSZ-AC 1SPD DX AC CLG COIL OUTLET AIR NODE,COIL:HEATING:FUEL,ZONE WEST PERIMETER SPACE - STORY GROUND PSZ-AC GAS HTG COIL,Inlet,1
 Non-Parent Node Connection,ZONE WEST PERIMETER SPACE - STORY GROUND PSZ-AC GAS HTG COIL OUTLET AIR NODE,COIL:HEATING:FUEL,ZONE WEST PERIMETER SPACE - STORY GROUND PSZ-AC GAS HTG COIL,Outlet,1
 Non-Parent Node Connection,ZONE WEST PERIMETER SPACE - STORY GROUND PSZ-AC GAS HTG COIL OUTLET AIR NODE,COIL:HEATING:FUEL,ZONE WEST PERIMETER SPACE - STORY GROUND PSZ-AC GAS HTG COIL,Sensor,1
 Non-Parent Node Connection,CHILLED WATER LOOP SECONDARY PUMP INLET WATER NODE,PUMP:VARIABLESPEED,CHILLED WATER LOOP SECONDARY PUMP,Inlet,1
 Non-Parent Node Connection,CHILLED WATER LOOP SECONDARY PUMP OUTLET WATER NODE,PUMP:VARIABLESPEED,CHILLED WATER LOOP SECONDARY PUMP,Outlet,1
 Non-Parent Node Connection,HOT WATER LOOP SUPPLY INLET NODE,PUMP:VARIABLESPEED,HOT WATER LOOP PUMP,Inlet,1
 Non-Parent Node Connection,HOT WATER LOOP PUMP OUTLET WATER NODE,PUMP:VARIABLESPEED,HOT WATER LOOP PUMP,Outlet,1
 Non-Parent Node Connection,CHILLED WATER LOOP SUPPLY INLET NODE,PUMP:CONSTANTSPEED,CHILLED WATER LOOP PRIMARY PUMP,Inlet,1
 Non-Parent Node Connection,CHILLED WATER LOOP PRIMARY PUMP OUTLET WATER NODE,PUMP:CONSTANTSPEED,CHILLED WATER LOOP PRIMARY PUMP,Outlet,1
 Non-Parent Node Connection,CONDENSER WATER LOOP SUPPLY INLET NODE,PUMP:CONSTANTSPEED,CONDENSER WATER LOOP CONSTANT PUMP,Inlet,1
 Non-Parent Node Connection,CONDENSER WATER LOOP CONSTANT PUMP OUTLET WATER NODE,PUMP:CONSTANTSPEED,CONDENSER WATER LOOP CONSTANT PUMP,Outlet,1
 Non-Parent Node Connection,OFFICE SHARED SERVICE WATER LOOP SUPPLY INLET NODE,PUMP:CONSTANTSPEED,OFFICE SHARED SERVICE WATER LOOP CIRCULATOR PUMP,Inlet,1
 Non-Parent Node Connection,OFFICE SHARED SERVICE WATER LOOP CIRCULATOR PUMP OUTLET WATER NODE,PUMP:CONSTANTSPEED,OFFICE SHARED SERVICE WATER LOOP CIRCULATOR PUMP,Outlet,1
