{
   "completed_at" : "20220420T141927Z",
   "completed_status" : "Success",
   "created_at" : "20200716T151823Z",
   "current_step" : 16,
   "eplusout_err" : "Program Version,EnergyPlus, Version 9.4.0-998c4b761e, YMD=2022.04.20 08:19,\n   ************* Beginning Zone Sizing Calculations\n   ** Warning ** ProcessScheduleInput: Schedule:Day:Interval=\"15 SPACE(S) OCC SCH DEFAULT\", Blank Schedule Type Limits Name input -- will not be validated.\n   ** Warning ** ProcessScheduleInput: Schedule:Day:Interval=\"15 SPACE(S) OCC SCH SATURDAY\", Blank Schedule Type Limits Name input -- will not be validated.\n   ** Warning ** ProcessScheduleInput: Schedule:Day:Interval=\"15 SPACE(S) OCC SCH SUMMER DESIGN DAY\", Blank Schedule Type Limits Name input -- will not be validated.\n   ** Warning ** ProcessScheduleInput: Schedule:Day:Interval=\"15 SPACE(S) OCC SCH SUNDAY\", Blank Schedule Type Limits Name input -- will not be validated.\n   ** Warning ** ProcessScheduleInput: Schedule:Day:Interval=\"15 SPACE(S) OCC SCH WINTER DESIGN DAY\", Blank Schedule Type Limits Name input -- will not be validated.\n   ** Warning ** ProcessScheduleInput: Schedule:Year=\"ELEVATOR SCHEDULE\", Blank Schedule Type Limits Name input -- will not be validated.\n   ** Warning ** ProcessScheduleInput: Schedule:Constant=\"ALWAYS OFF DISCRETE\", Blank Schedule Type Limits Name input -- will not be validated.\n   ** Warning ** ProcessScheduleInput: Schedule:Constant=\"ALWAYS ON CONTINUOUS\", Blank Schedule Type Limits Name input -- will not be validated.\n   ** Warning ** GetHTSurfaceData: Surfaces with interface to Ground found but no \"Ground Temperatures\" were input.\n   **   ~~~   ** Found first in surface=SURFACE 25\n   **   ~~~   ** Defaults, constant throughout the year of (18.0) will be used.\n   ** Warning ** CheckUsedConstructions: There are 10 nominally unused constructions in input.\n   **   ~~~   ** For explicit details on each unused construction, use Output:Diagnostics,DisplayExtraWarnings;\n   ** Warning ** GetInternalHeatGains: People=\"OFFICE WHOLEBUILDING - MD OFFICE PEOPLE\" has comfort related schedules but no thermal comfort model selected.\n   **   ~~~   ** If schedules are specified for air velocity, clothing insulation, and/or work efficiency but no thermal comfort\n   **   ~~~   ** thermal comfort model is selected, the schedules will be listed as unused schedules in the .err file.\n   **   ~~~   ** To avoid these errors, select a valid thermal comfort model or eliminate these schedules in the PEOPLE input.\n   ** Warning ** GetInternalHeatGains: People=\"OFFICE WHOLEBUILDING - MD OFFICE PEOPLE\" has comfort related schedules but no thermal comfort model selected.\n   **   ~~~   ** If schedules are specified for air velocity, clothing insulation, and/or work efficiency but no thermal comfort\n   **   ~~~   ** thermal comfort model is selected, the schedules will be listed as unused schedules in the .err file.\n   **   ~~~   ** To avoid these errors, select a valid thermal comfort model or eliminate these schedules in the PEOPLE input.\n   ** Warning ** GetInternalHeatGains: People=\"OFFICE WHOLEBUILDING - MD OFFICE PEOPLE\" has comfort related schedules but no thermal comfort model selected.\n   **   ~~~   ** If schedules are specified for air velocity, clothing insulation, and/or work efficiency but no thermal comfort\n   **   ~~~   ** thermal comfort model is selected, the schedules will be listed as unused schedules in the .err file.\n   **   ~~~   ** To avoid these errors, select a valid thermal comfort model or eliminate these schedules in the PEOPLE input.\n   ** Warning ** GetInternalHeatGains: People=\"OFFICE WHOLEBUILDING - MD OFFICE PEOPLE\" has comfort related schedules but no thermal comfort model selected.\n   **   ~~~   ** If schedules are specified for air velocity, clothing insulation, and/or work efficiency but no thermal comfort\n   **   ~~~   ** thermal comfort model is selected, the schedules will be listed as unused schedules in the .err file.\n   **   ~~~   ** To avoid these errors, select a valid thermal comfort model or eliminate these schedules in the PEOPLE input.\n   ** Warning ** GetInternalHeatGains: People=\"OFFICE WHOLEBUILDING - MD OFFICE PEOPLE\" has comfort related schedules but no thermal comfort model selected.\n   **   ~~~   ** If schedules are specified for air velocity, clothing insulation, and/or work efficiency but no thermal comfort\n   **   ~~~   ** thermal comfort model is selected, the schedules will be listed as unused schedules in the .err file.\n   **   ~~~   ** To avoid these errors, select a valid thermal comfort model or eliminate these schedules in the PEOPLE input.\n   ** Warning ** GetInternalHeatGains: People=\"OFFICE WHOLEBUILDING - MD OFFICE PEOPLE\" has comfort related schedules but no thermal comfort model selected.\n   **   ~~~   ** If schedules are specified for air velocity, clothing insulation, and/or work efficiency but no thermal comfort\n   **   ~~~   ** thermal comfort model is selected, the schedules will be listed as unused schedules in the .err file.\n   **   ~~~   ** To avoid these errors, select a valid thermal comfort model or eliminate these schedules in the PEOPLE input.\n   ** Warning ** GetInternalHeatGains: People=\"OFFICE WHOLEBUILDING - MD OFFICE PEOPLE\" has comfort related schedules but no thermal comfort model selected.\n   **   ~~~   ** If schedules are specified for air velocity, clothing insulation, and/or work efficiency but no thermal comfort\n   **   ~~~   ** thermal comfort model is selected, the schedules will be listed as unused schedules in the .err file.\n   **   ~~~   ** To avoid these errors, select a valid thermal comfort model or eliminate these schedules in the PEOPLE input.\n   ** Warning ** GetInternalHeatGains: People=\"OFFICE WHOLEBUILDING - MD OFFICE PEOPLE\" has comfort related schedules but no thermal comfort model selected.\n   **   ~~~   ** If schedules are specified for air velocity, clothing insulation, and/or work efficiency but no thermal comfort\n   **   ~~~   ** thermal comfort model is selected, the schedules will be listed as unused schedules in the .err file.\n   **   ~~~   ** To avoid these errors, select a valid thermal comfort model or eliminate these schedules in the PEOPLE input.\n   ** Warning ** GetInternalHeatGains: People=\"OFFICE WHOLEBUILDING - MD OFFICE PEOPLE\" has comfort related schedules but no thermal comfort model selected.\n   **   ~~~   ** If schedules are specified for air velocity, clothing insulation, and/or work efficiency but no thermal comfort\n   **   ~~~   ** thermal comfort model is selected, the schedules will be listed as unused schedules in the .err file.\n   **   ~~~   ** To avoid these errors, select a valid thermal comfort model or eliminate these schedules in the PEOPLE input.\n   ** Warning ** GetInternalHeatGains: People=\"OFFICE WHOLEBUILDING - MD OFFICE PEOPLE\" has comfort related schedules but no thermal comfort model selected.\n   **   ~~~   ** If schedules are specified for air velocity, clothing insulation, and/or work efficiency but no thermal comfort\n   **   ~~~   ** thermal comfort model is selected, the schedules will be listed as unused schedules in the .err file.\n   **   ~~~   ** To avoid these errors, select a valid thermal comfort model or eliminate these schedules in the PEOPLE input.\n   ** Warning ** GetInternalHeatGains: People=\"OFFICE WHOLEBUILDING - MD OFFICE PEOPLE\" has comfort related schedules but no thermal comfort model selected.\n   **   ~~~   ** If schedules are specified for air velocity, clothing insulation, and/or work efficiency but no thermal comfort\n   **   ~~~   ** thermal comfort model is selected, the schedules will be listed as unused schedules in the .err file.\n   **   ~~~   ** To avoid these errors, select a valid thermal comfort model or eliminate these schedules in the PEOPLE input.\n   ** Warning ** GetInternalHeatGains: People=\"OFFICE WHOLEBUILDING - MD OFFICE PEOPLE\" has comfort related schedules but no thermal comfort model selected.\n   **   ~~~   ** If schedules are specified for air velocity, clothing insulation, and/or work efficiency but no thermal comfort\n   **   ~~~   ** thermal comfort model is selected, the schedules will be listed as unused schedules in the .err file.\n   **   ~~~   ** To avoid these errors, select a valid thermal comfort model or eliminate these schedules in the PEOPLE input.\n   ** Warning ** GetInternalHeatGains: People=\"OFFICE WHOLEBUILDING - MD OFFICE PEOPLE\" has comfort related schedules but no thermal comfort model selected.\n   **   ~~~   ** If schedules are specified for air velocity, clothing insulation, and/or work efficiency but no thermal comfort\n   **   ~~~   ** thermal comfort model is selected, the schedules will be listed as unused schedules in the .err file.\n   **   ~~~   ** To avoid these errors, select a valid thermal comfort model or eliminate these schedules in the PEOPLE input.\n   ** Warning ** GetInternalHeatGains: People=\"OFFICE WHOLEBUILDING - MD OFFICE PEOPLE\" has comfort related schedules but no thermal comfort model selected.\n   **   ~~~   ** If schedules are specified for air velocity, clothing insulation, and/or work efficiency but no thermal comfort\n   **   ~~~   ** thermal comfort model is selected, the schedules will be listed as unused schedules in the .err file.\n   **   ~~~   ** To avoid these errors, select a valid thermal comfort model or eliminate these schedules in the PEOPLE input.\n   ** Warning ** GetInternalHeatGains: People=\"OFFICE WHOLEBUILDING - MD OFFICE PEOPLE\" has comfort related schedules but no thermal comfort model selected.\n   **   ~~~   ** If schedules are specified for air velocity, clothing insulation, and/or work efficiency but no thermal comfort\n   **   ~~~   ** thermal comfort model is selected, the schedules will be listed as unused schedules in the .err file.\n   **   ~~~   ** To avoid these errors, select a valid thermal comfort model or eliminate these schedules in the PEOPLE input.\n   ** Warning ** Seems like you already tried to get a Handle on this Actuator 1times.\n   **   ~~~   ** Occurred for componentType='SCHEDULE:YEAR', controlType='SCHEDULE VALUE', uniqueKey='OFFICEMEDIUM CLGSETP_SCH_NO_SETBACK'.\n   **   ~~~   ** You should take note that there is a risk of overwritting.\n   ** Warning ** Seems like you already tried to get a Handle on this Actuator 1times.\n   **   ~~~   ** Occurred for componentType='SCHEDULE:YEAR', controlType='SCHEDULE VALUE', uniqueKey='OFFICEMEDIUM HTGSETP_SCH_PACU_VAV_BOT'.\n   **   ~~~   ** You should take note that there is a risk of overwritting.\n   ** Warning ** GetDaylightingControls: Fraction of Zone controlled by the Daylighting reference points is < 1.0.\n   **   ~~~   ** ..discovered in \"Daylighting:Controls\" for Zone=\"ZONE EAST PERIMETER SPACE - STORY GROUND\", only 0.537 of the zone is controlled.\n   ** Warning ** GetDaylightingControls: Fraction of Zone controlled by the Daylighting reference points is < 1.0.\n   **   ~~~   ** ..discovered in \"Daylighting:Controls\" for Zone=\"ZONE EAST PERIMETER SPACE - STORY MID\", only 0.537 of the zone is controlled.\n   ** Warning ** GetDaylightingControls: Fraction of Zone controlled by the Daylighting reference points is < 1.0.\n   **   ~~~   ** ..discovered in \"Daylighting:Controls\" for Zone=\"ZONE EAST PERIMETER SPACE - STORY TOP\", only 0.537 of the zone is controlled.\n   ** Warning ** GetDaylightingControls: Fraction of Zone controlled by the Daylighting reference points is < 1.0.\n   **   ~~~   ** ..discovered in \"Daylighting:Controls\" for Zone=\"ZONE NORTH PERIMETER SPACE - STORY GROUND\", only 0.533 of the zone is controlled.\n   ** Warning ** GetDaylightingControls: Fraction of Zone controlled by the Daylighting reference points is < 1.0.\n   **   ~~~   ** ..discovered in \"Daylighting:Controls\" for Zone=\"ZONE NORTH PERIMETER SPACE - STORY MID\", only 0.533 of the zone is controlled.\n   ** Warning ** GetDaylightingControls: Fraction of Zone controlled by the Daylighting reference points is < 1.0.\n   **   ~~~   ** ..discovered in \"Daylighting:Controls\" for Zone=\"ZONE NORTH PERIMETER SPACE - STORY TOP\", only 0.533 of the zone is controlled.\n   ** Warning ** GetDaylightingControls: Fraction of Zone controlled by the Daylighting reference points is < 1.0.\n   **   ~~~   ** ..discovered in \"Daylighting:Controls\" for Zone=\"ZONE SOUTH PERIMETER SPACE - STORY GROUND\", only 0.533 of the zone is controlled.\n   ** Warning ** GetDaylightingControls: Fraction of Zone controlled by the Daylighting reference points is < 1.0.\n   **   ~~~   ** ..discovered in \"Daylighting:Controls\" for Zone=\"ZONE SOUTH PERIMETER SPACE - STORY MID\", only 0.533 of the zone is controlled.\n   ** Warning ** GetDaylightingControls: Fraction of Zone controlled by the Daylighting reference points is < 1.0.\n   **   ~~~   ** ..discovered in \"Daylighting:Controls\" for Zone=\"ZONE SOUTH PERIMETER SPACE - STORY TOP\", only 0.533 of the zone is controlled.\n   ** Warning ** GetDaylightingControls: Fraction of Zone controlled by the Daylighting reference points is < 1.0.\n   **   ~~~   ** ..discovered in \"Daylighting:Controls\" for Zone=\"ZONE WEST PERIMETER SPACE - STORY GROUND\", only 0.537 of the zone is controlled.\n   ** Warning ** GetDaylightingControls: Fraction of Zone controlled by the Daylighting reference points is < 1.0.\n   **   ~~~   ** ..discovered in \"Daylighting:Controls\" for Zone=\"ZONE WEST PERIMETER SPACE - STORY MID\", only 0.537 of the zone is controlled.\n   ** Warning ** GetDaylightingControls: Fraction of Zone controlled by the Daylighting reference points is < 1.0.\n   **   ~~~   ** ..discovered in \"Daylighting:Controls\" for Zone=\"ZONE WEST PERIMETER SPACE - STORY TOP\", only 0.537 of the zone is controlled.\n   ************* Beginning System Sizing Calculations\n   ** Warning ** Since Zone Minimum Air Flow Input Method = CONSTANT, input for Fixed Minimum Air Flow Rate will be ignored.\n   **   ~~~   ** Occurs in AirTerminal:SingleDuct:VAV:Reheat = ZONE CORE SPACE - STORY GROUND VAV TERMINAL\n   ** Warning ** Since Zone Minimum Air Flow Input Method = CONSTANT, input for Fixed Minimum Air Flow Rate will be ignored.\n   **   ~~~   ** Occurs in AirTerminal:SingleDuct:VAV:Reheat = ZONE CORE SPACE - STORY MID VAV TERMINAL\n   ** Warning ** Since Zone Minimum Air Flow Input Method = CONSTANT, input for Fixed Minimum Air Flow Rate will be ignored.\n   **   ~~~   ** Occurs in AirTerminal:SingleDuct:VAV:Reheat = ZONE CORE SPACE - STORY TOP VAV TERMINAL\n   ** Warning ** Since Zone Minimum Air Flow Input Method = CONSTANT, input for Fixed Minimum Air Flow Rate will be ignored.\n   **   ~~~   ** Occurs in AirTerminal:SingleDuct:VAV:Reheat = ZONE EAST PERIMETER SPACE - STORY MID VAV TERMINAL\n   ** Warning ** Since Zone Minimum Air Flow Input Method = CONSTANT, input for Fixed Minimum Air Flow Rate will be ignored.\n   **   ~~~   ** Occurs in AirTerminal:SingleDuct:VAV:Reheat = ZONE EAST PERIMETER SPACE - STORY TOP VAV TERMINAL\n   ** Warning ** Since Zone Minimum Air Flow Input Method = CONSTANT, input for Fixed Minimum Air Flow Rate will be ignored.\n   **   ~~~   ** Occurs in AirTerminal:SingleDuct:VAV:Reheat = ZONE NORTH PERIMETER SPACE - STORY MID VAV TERMINAL\n   ** Warning ** Since Zone Minimum Air Flow Input Method = CONSTANT, input for Fixed Minimum Air Flow Rate will be ignored.\n   **   ~~~   ** Occurs in AirTerminal:SingleDuct:VAV:Reheat = ZONE NORTH PERIMETER SPACE - STORY TOP VAV TERMINAL\n   ** Warning ** Since Zone Minimum Air Flow Input Method = CONSTANT, input for Fixed Minimum Air Flow Rate will be ignored.\n   **   ~~~   ** Occurs in AirTerminal:SingleDuct:VAV:Reheat = ZONE SOUTH PERIMETER SPACE - STORY MID VAV TERMINAL\n   ** Warning ** Since Zone Minimum Air Flow Input Method = CONSTANT, input for Fixed Minimum Air Flow Rate will be ignored.\n   **   ~~~   ** Occurs in AirTerminal:SingleDuct:VAV:Reheat = ZONE SOUTH PERIMETER SPACE - STORY TOP VAV TERMINAL\n   ** Warning ** Since Zone Minimum Air Flow Input Method = CONSTANT, input for Fixed Minimum Air Flow Rate will be ignored.\n   **   ~~~   ** Occurs in AirTerminal:SingleDuct:VAV:Reheat = ZONE WEST PERIMETER SPACE - STORY MID VAV TERMINAL\n   ** Warning ** Since Zone Minimum Air Flow Input Method = CONSTANT, input for Fixed Minimum Air Flow Rate will be ignored.\n   **   ~~~   ** Occurs in AirTerminal:SingleDuct:VAV:Reheat = ZONE WEST PERIMETER SPACE - STORY TOP VAV TERMINAL\n   ************* Beginning Plant Sizing Calculations\n   ** Warning ** GetOAControllerInputs: Controller:MechanicalVentilation=\"1 ZONE VAV VENT CONTROLLER\n   **   ~~~   ** Cannot locate a matching DesignSpecification:ZoneAirDistribution object for Zone=\"ZONE CORE SPACE - STORY GROUND\".\n   **   ~~~   ** Using default zone air distribution effectiveness of 1.0 for heating and cooling.\n   ** Warning ** GetOAControllerInputs: Controller:MechanicalVentilation=\"5 ZONE VAV VENT CONTROLLER\n   **   ~~~   ** Cannot locate a matching DesignSpecification:ZoneAirDistribution object for Zone=\"ZONE CORE SPACE - STORY MID\".\n   **   ~~~   ** Using default zone air distribution effectiveness of 1.0 for heating and cooling.\n   ** Warning ** GetOAControllerInputs: Controller:MechanicalVentilation=\"5 ZONE VAV VENT CONTROLLER\n   **   ~~~   ** Cannot locate a matching DesignSpecification:ZoneAirDistribution object for Zone=\"ZONE EAST PERIMETER SPACE - STORY MID\".\n   **   ~~~   ** Using default zone air distribution effectiveness of 1.0 for heating and cooling.\n   ** Warning ** GetOAControllerInputs: Controller:MechanicalVentilation=\"5 ZONE VAV VENT CONTROLLER\n   **   ~~~   ** Cannot locate a matching DesignSpecification:ZoneAirDistribution object for Zone=\"ZONE NORTH PERIMETER SPACE - STORY MID\".\n   **   ~~~   ** Using default zone air distribution effectiveness of 1.0 for heating and cooling.\n   ** Warning ** GetOAControllerInputs: Controller:MechanicalVentilation=\"5 ZONE VAV VENT CONTROLLER\n   **   ~~~   ** Cannot locate a matching DesignSpecification:ZoneAirDistribution object for Zone=\"ZONE SOUTH PERIMETER SPACE - STORY MID\".\n   **   ~~~   ** Using default zone air distribution effectiveness of 1.0 for heating and cooling.\n   ** Warning ** GetOAControllerInputs: Controller:MechanicalVentilation=\"5 ZONE VAV VENT CONTROLLER\n   **   ~~~   ** Cannot locate a matching DesignSpecification:ZoneAirDistribution object for Zone=\"ZONE WEST PERIMETER SPACE - STORY MID\".\n   **   ~~~   ** Using default zone air distribution effectiveness of 1.0 for heating and cooling.\n   ** Warning ** GetOAControllerInputs: Controller:MechanicalVentilation=\"5 ZONE VAV 1 VENT CONTROLLER\n   **   ~~~   ** Cannot locate a matching DesignSpecification:ZoneAirDistribution object for Zone=\"ZONE CORE SPACE - STORY TOP\".\n   **   ~~~   ** Using default zone air distribution effectiveness of 1.0 for heating and cooling.\n   ** Warning ** GetOAControllerInputs: Controller:MechanicalVentilation=\"5 ZONE VAV 1 VENT CONTROLLER\n   **   ~~~   ** Cannot locate a matching DesignSpecification:ZoneAirDistribution object for Zone=\"ZONE EAST PERIMETER SPACE - STORY TOP\".\n   **   ~~~   ** Using default zone air distribution effectiveness of 1.0 for heating and cooling.\n   ** Warning ** GetOAControllerInputs: Controller:MechanicalVentilation=\"5 ZONE VAV 1 VENT CONTROLLER\n   **   ~~~   ** Cannot locate a matching DesignSpecification:ZoneAirDistribution object for Zone=\"ZONE NORTH PERIMETER SPACE - STORY TOP\".\n   **   ~~~   ** Using default zone air distribution effectiveness of 1.0 for heating and cooling.\n   ** Warning ** GetOAControllerInputs: Controller:MechanicalVentilation=\"5 ZONE VAV 1 VENT CONTROLLER\n   **   ~~~   ** Cannot locate a matching DesignSpecification:ZoneAirDistribution object for Zone=\"ZONE SOUTH PERIMETER SPACE - STORY TOP\".\n   **   ~~~   ** Using default zone air distribution effectiveness of 1.0 for heating and cooling.\n   ** Warning ** GetOAControllerInputs: Controller:MechanicalVentilation=\"5 ZONE VAV 1 VENT CONTROLLER\n   **   ~~~   ** Cannot locate a matching DesignSpecification:ZoneAirDistribution object for Zone=\"ZONE WEST PERIMETER SPACE - STORY TOP\".\n   **   ~~~   ** Using default zone air distribution effectiveness of 1.0 for heating and cooling.\n   ** Warning ** GetOAControllerInputs: Controller:MechanicalVentilation=\"CONTROLLER MECHANICAL VENTILATION 1\n   **   ~~~   ** Cannot locate a matching DesignSpecification:ZoneAirDistribution object for Zone=\"ZONE EAST PERIMETER SPACE - STORY GROUND\".\n   **   ~~~   ** Using default zone air distribution effectiveness of 1.0 for heating and cooling.\n   ** Warning ** GetOAControllerInputs: Controller:MechanicalVentilation=\"CONTROLLER MECHANICAL VENTILATION 2\n   **   ~~~   ** Cannot locate a matching DesignSpecification:ZoneAirDistribution object for Zone=\"ZONE NORTH PERIMETER SPACE - STORY GROUND\".\n   **   ~~~   ** Using default zone air distribution effectiveness of 1.0 for heating and cooling.\n   ** Warning ** GetOAControllerInputs: Controller:MechanicalVentilation=\"CONTROLLER MECHANICAL VENTILATION 3\n   **   ~~~   ** Cannot locate a matching DesignSpecification:ZoneAirDistribution object for Zone=\"ZONE SOUTH PERIMETER SPACE - STORY GROUND\".\n   **   ~~~   ** Using default zone air distribution effectiveness of 1.0 for heating and cooling.\n   ** Warning ** GetOAControllerInputs: Controller:MechanicalVentilation=\"CONTROLLER MECHANICAL VENTILATION 4\n   **   ~~~   ** Cannot locate a matching DesignSpecification:ZoneAirDistribution object for Zone=\"ZONE WEST PERIMETER SPACE - STORY GROUND\".\n   **   ~~~   ** Using default zone air distribution effectiveness of 1.0 for heating and cooling.\n   ** Warning ** SizeWaterCoil: Coil=\"1 ZONE VAV CLG COIL\", Cooling Coil has leaving humidity ratio > entering humidity ratio.\n   **   ~~~   **     Wair,in =  7.881512E-003 [kgWater/kgDryAir]\n   **   ~~~   **     Wair,out = 8.500000E-003 [kgWater/kgDryAir]\n   **   ~~~   ** ....coil leaving humidity ratio will be reset to:\n   **   ~~~   **     Wair,out = 7.881512E-003 [kgWater/kgDryAir]\n   ** Warning ** SizeWaterCoil: Coil=\"5 ZONE VAV CLG COIL\", Cooling Coil has leaving humidity ratio > entering humidity ratio.\n   **   ~~~   **     Wair,in =  8.179655E-003 [kgWater/kgDryAir]\n   **   ~~~   **     Wair,out = 8.500000E-003 [kgWater/kgDryAir]\n   **   ~~~   ** ....coil leaving humidity ratio will be reset to:\n   **   ~~~   **     Wair,out = 8.179655E-003 [kgWater/kgDryAir]\n   ** Warning ** SizeWaterCoil: Coil=\"5 ZONE VAV 1 CLG COIL\", Cooling Coil has leaving humidity ratio > entering humidity ratio.\n   **   ~~~   **     Wair,in =  8.209342E-003 [kgWater/kgDryAir]\n   **   ~~~   **     Wair,out = 8.500000E-003 [kgWater/kgDryAir]\n   **   ~~~   ** ....coil leaving humidity ratio will be reset to:\n   **   ~~~   **     Wair,out = 8.209342E-003 [kgWater/kgDryAir]\n   ** Warning ** The Standard Ratings is calculated for Coil:Cooling:DX:SingleSpeed = ZONE EAST PERIMETER SPACE - STORY GROUND PSZ-AC 1SPD DX AC CLG COIL 129KBTU/HR 11.0EER but not at the AHRI test condition due to curve out of bound.\n   **   ~~~   **  Review the Standard Ratings calculations in the Engineering Reference for this coil type. Also, use Output:Diagnostics, DisplayExtraWarnings for further guidance.\n   ** Warning ** The Standard Ratings is calculated for Coil:Cooling:DX:SingleSpeed = ZONE NORTH PERIMETER SPACE - STORY GROUND PSZ-AC 1SPD DX AC CLG COIL 89KBTU/HR 11.0EER but not at the AHRI test condition due to curve out of bound.\n   **   ~~~   **  Review the Standard Ratings calculations in the Engineering Reference for this coil type. Also, use Output:Diagnostics, DisplayExtraWarnings for further guidance.\n   ** Warning ** The Standard Ratings is calculated for Coil:Cooling:DX:SingleSpeed = ZONE SOUTH PERIMETER SPACE - STORY GROUND PSZ-AC 1SPD DX AC CLG COIL 113KBTU/HR 11.0EER but not at the AHRI test condition due to curve out of bound.\n   **   ~~~   **  Review the Standard Ratings calculations in the Engineering Reference for this coil type. Also, use Output:Diagnostics, DisplayExtraWarnings for further guidance.\n   ** Warning ** The Standard Ratings is calculated for Coil:Cooling:DX:SingleSpeed = ZONE WEST PERIMETER SPACE - STORY GROUND PSZ-AC 1SPD DX AC CLG COIL 146KBTU/HR 10.8EER but not at the AHRI test condition due to curve out of bound.\n   **   ~~~   **  Review the Standard Ratings calculations in the Engineering Reference for this coil type. Also, use Output:Diagnostics, DisplayExtraWarnings for further guidance.\n   ** Warning ** Output:Meter: invalid Key Name=\"DISTRICTCOOLING:FACILITY\" - not found.\n   ** Warning ** Output:Meter: invalid Key Name=\"DISTRICTHEATING:FACILITY\" - not found.\n   ** Warning ** Output:Meter:MeterFileOnly requested for \"Electricity:Facility\" (TimeStep), already on \"Output:Meter\". Will report to both eplusout.eso and eplusout.mtr\n   ************* Testing Individual Branch Integrity\n   ************* All Branches passed integrity testing\n   ************* Testing Individual Supply Air Path Integrity\n   ************* All Supply Air Paths passed integrity testing\n   ************* Testing Individual Return Air Path Integrity\n   ************* All Return Air Paths passed integrity testing\n   ************* No node connection errors were found.\n   ** Warning ** CalcOAController: Minimum OA fraction > Mechanical Ventilation Controller request for Controller:OutdoorAir=5 ZONE VAV OA CONTROLLER, Min OA fraction is used.\n   **   ~~~   ** This may be overriding desired ventilation controls. Check inputs for Minimum Outdoor Air Flow Rate, Minimum Outdoor Air Schedule Name and Controller:MechanicalVentilation\n   **   ~~~   ** Minimum OA fraction = 0.2130, Mech Vent OA fraction = 0.1278\n   **   ~~~   **  Environment=TUCSON INTERNATIONAL AP ANN CLG .4% CONDNS DB=>MWB 1 HVAC Sizing Pass 1, at Simulation time=07/21 00:00 - 00:15\n   ** Warning ** CoolingTower:VariableSpeed \"PROPELLER OR AXIAL VARIABLE SPEED FAN OPEN COOLING TOWER 38.2 GPM/HP\" - Tower range temperature is outside model boundaries at 0.75.\n   **   ~~~   **  ...Valid range = 1.11 to 11.11. Occurrence info = TUCSON INTERNATIONAL AP ANN HTG 99.6% CONDNS DB 1 HVAC Sizing Pass 1, 12/21 06:00 - 06:02\n   **   ~~~   **  ...Tower range temperature passed to the model = 0.74600\n   **   ~~~   **  ...Range temperatures outside model boundaries may not adversely affect tower performance.\n   **   ~~~   **  ...This is not an unexpected occurrence when simulating actual conditions.\n   ** Warning ** CoolingTower:VariableSpeed \"PROPELLER OR AXIAL VARIABLE SPEED FAN OPEN COOLING TOWER 38.2 GPM/HP\" - Tower approach temperature is outside model boundaries at 21.31.\n   **   ~~~   **  ...Valid range = 1.11 to 11.11. Occurrence info = TUCSON INTERNATIONAL AP ANN HTG 99.6% CONDNS DB 1 HVAC Sizing Pass 1, 12/21 06:00 - 06:02\n   **   ~~~   **  ...Tower approach temperature passed to the model = 21.31112\n   **   ~~~   **  ...Approach temperatures outside model boundaries may not adversely affect tower performance.\n   **   ~~~   **  ...This is not an unexpected occurrence when simulating actual conditions.\n   ************* Beginning Simulation\n   ** Warning ** SimHVAC: Maximum iterations (20) exceeded for all HVAC loops, at RUN PERIOD 1, 08/05 06:45 - 07:00\n   **   ~~~   ** The solution for one or more of the Air Loop HVAC systems did not appear to converge\n   **   ~~~   ** ...use Output:Diagnostics,DisplayExtraWarnings; to show more details on each max iteration exceeded.\n   ** Warning ** The resource referenced by LifeCycleCost:UsePriceEscalation= \"U.S. AVG  COMMERCIAL-ELECTRICITY\" has no energy cost. \n   **   ~~~   ** ... It is likely that the wrong resource is used. The resource should match the meter used in Utility:Tariff.\n   ** Warning ** The resource referenced by LifeCycleCost:UsePriceEscalation= \"U.S. AVG  COMMERCIAL-DISTILLATE OIL\" has no energy cost. \n   **   ~~~   ** ... It is likely that the wrong resource is used. The resource should match the meter used in Utility:Tariff.\n   ** Warning ** The resource referenced by LifeCycleCost:UsePriceEscalation= \"U.S. AVG  COMMERCIAL-RESIDUAL OIL\" has no energy cost. \n   **   ~~~   ** ... It is likely that the wrong resource is used. The resource should match the meter used in Utility:Tariff.\n   ** Warning ** The resource referenced by LifeCycleCost:UsePriceEscalation= \"U.S. AVG  COMMERCIAL-NATURAL GAS\" has no energy cost. \n   **   ~~~   ** ... It is likely that the wrong resource is used. The resource should match the meter used in Utility:Tariff.\n   ** Warning ** The resource referenced by LifeCycleCost:UsePriceEscalation= \"U.S. AVG  COMMERCIAL-COAL\" has no energy cost. \n   **   ~~~   ** ... It is likely that the wrong resource is used. The resource should match the meter used in Utility:Tariff.\n   ************* Simulation Error Summary *************\n   ** Warning ** The following Report Variables were requested but not generated -- check.rdd file\n   **   ~~~   ** Either the IDF did not contain these elements, the variable name is misspelled,\n   **   ~~~   ** or the requested variable is an advanced output which requires Output : Diagnostics, DisplayAdvancedReportVariables;\n   ************* Key=*, VarName=GENERATOR PRODUCED DC ELECTRIC ENERGY, Frequency=TimeStep\n   ************* Key=*, VarName=SURFACE WINDOW THERMOCHROMIC LAYER PROPERTY SPECIFICATION TEMPERATURE, Frequency=TimeStep\n   ************* Key=*, VarName=DYNAMIC_PCE_SUBSURFACE1, Frequency=TimeStep\n   ************* Key=*, VarName=DYNAMIC_PCE_SUBSURFACE2, Frequency=TimeStep\n   ************* Key=*, VarName=DYNAMIC_PCE_SUBSURFACE3, Frequency=TimeStep\n   ************* Key=*, VarName=DYNAMIC_PCE_SUBSURFACE4, Frequency=TimeStep\n   ************* There are 7 unused schedules in input.\n   ************* There are 9 unused week schedules in input.\n   ************* There are 16 unused day schedules in input.\n   ************* Use Output:Diagnostics,DisplayUnusedSchedules; to see them.\n   *************\n   ************* ===== Recurring Error Summary =====\n   ************* The following recurring error messages occurred.\n   *************\n   *************  ** Warning ** Controller:OutdoorAir=\"5 ZONE VAV OA CONTROLLER\": Min OA fraction > Mechanical ventilation OA fraction, continues...\n   *************  **   ~~~   **   This error occurred 28711 total times;\n   *************  **   ~~~   **   during Warmup 0 times;\n   *************  **   ~~~   **   during Sizing 0 times.\n   *************  **   ~~~   **   Max=0.213047  Min=0.213047\n   *************\n   *************  ** Warning ** CoolingTower:VariableSpeed \"PROPELLER OR AXIAL VARIABLE SPEED FAN OPEN COOLING TOWER 38.2 GPM/HP\" - Tower range temperature is out of range error continues...\n   *************  **   ~~~   **   This error occurred 9 total times;\n   *************  **   ~~~   **   during Warmup 0 times;\n   *************  **   ~~~   **   during Sizing 0 times.\n   *************  **   ~~~   **   Max=0.810902  Min=1.222776E-002\n   *************\n   *************  ** Warning ** CoolingTower:VariableSpeed \"PROPELLER OR AXIAL VARIABLE SPEED FAN OPEN COOLING TOWER 38.2 GPM/HP\" - Tower approach temperature is out of range error continues...\n   *************  **   ~~~   **   This error occurred 9 total times;\n   *************  **   ~~~   **   during Warmup 0 times;\n   *************  **   ~~~   **   during Sizing 0 times.\n   *************  **   ~~~   **   Max=21.311121  Min=21.311121\n   *************\n   *************\n   ************* ===== Final Error Summary =====\n   ************* The following error categories occurred.  Consider correcting or noting.\n   ************* Nominally Unused Constructions\n   ************* ..The nominally unused constructions warning is provided to alert you to potential conditions that can cause\n   ************* ..extra time during simulation. Each construction is calculated by the algorithm indicated in the HeatBalanceAlgorithm\n   ************* ..object. You may remove the constructions indicated (when you use the DisplayExtraWarnings option).\n   *************\n   ************* EnergyPlus Warmup Error Summary. During Warmup: 0 Warning; 0 Severe Errors.\n   ************* EnergyPlus Sizing Error Summary. During Sizing: 50 Warning; 0 Severe Errors.\n   ************* EnergyPlus Completed Successfully-- 28814 Warning; 0 Severe Errors; Elapsed Time=00hr 00min  5.92sec\n",
   "file_paths" : 
   [
      "C:/Users/JKIM4/AppData/Local/Temp/1/osmodel-1650464208-0/resources/generated_files",
      "./files",
      "./weather",
      "../../files",
      "../../weather",
      "./"
   ],
   "hash" : "08256085",
   "seed_file" : "../SG_Testing_v18.osm",
   "started_at" : "20220420T141854Z",
   "steps" : 
   [
      {
         "arguments" : 
         {
            "use_upstream_args" : false,
            "weather_file_name" : "C:\\Users\\JKIM4\\Documents\\GitHub\\SG_Measures\\WeatherFiles\\USA_AZ_Tucson.Intl.AP.722740_TMY3.epw"
         },
         "description" : "Change the building location",
         "measure_dir_name" : "ChangeBuildingLocation",
         "modeler_description" : "Change the building location",
         "name" : "ChangeBuildingLocation",
         "result" : 
         {
            "completed_at" : "20220420T141855Z",
            "measure_class_name" : "ChangeBuildingLocation",
            "measure_display_name" : "ChangeBuildingLocation",
            "measure_name" : "change_building_location",
            "measure_taxonomy" : "Whole Building.Space Types",
            "measure_type" : "ModelMeasure",
            "measure_uid" : "d4db4971-f5ba-11e3-a3ac-0800200c9a66",
            "measure_version_id" : "9caaa93d-fb5f-4bcd-845c-d4b1cf9abfe6",
            "measure_version_modified" : "20220111T234921Z",
            "measure_xml_checksum" : "057E8D9D",
            "started_at" : "20220420T141855Z",
            "stderr" : "",
            "stdout" : "",
            "step_errors" : [],
            "step_files" : [],
            "step_final_condition" : "The final weather file is Tucson International Ap and the model has 3 design day objects.",
            "step_info" : 
            [
               "city is Tucson International Ap. State is AZ",
               "mean dry bulb is 20.391666666666662",
               "Adding object Tucson International Ap Ann Clg .4% Condns DB=>MWB",
               "Adding object Tucson International Ap Ann Clg .4% Condns WB=>MDB",
               "Adding object Tucson International Ap Ann Htg 99.6% Condns DB",
               "Setting ASHRAE Climate Zone to 2B"
            ],
            "step_initial_condition" : "No weather file is set. The model has 0 design day objects",
            "step_result" : "Success",
            "step_values" : 
            [
               {
                  "name" : "weather_file_name",
                  "value" : "C:\\Users\\JKIM4\\Documents\\GitHub\\SG_Measures\\WeatherFiles\\USA_AZ_Tucson.Intl.AP.722740_TMY3.epw"
               },
               {
                  "name" : "climate_zone",
                  "value" : "Lookup From Stat File"
               },
               {
                  "name" : "set_year",
                  "value" : 0
               },
               {
                  "name" : "use_upstream_args",
                  "value" : false
               },
               {
                  "name" : "epw_gsub",
                  "value" : "Do Nothing"
               },
               {
                  "name" : "reported_climate_zone",
                  "value" : "2B"
               }
            ],
            "step_warnings" : []
         }
      },
      {
         "arguments" : 
         {
            "bar_division_method" : "Single Space Type - Core and Perimeter",
            "bldg_type_a" : "MediumOffice",
            "num_stories_above_grade" : 20,
            "single_floor_area" : 50000,
            "story_multiplier" : "Basements Ground Mid Top",
            "template" : "90.1-2010",
            "wwr" : 0.69999999999999996
         },
         "description" : "Creates one or more rectangular building elements based on space type ratios of selected mix of building types, along with user arguments that describe the desired geometry characteristics.",
         "measure_dir_name" : "create_bar_from_building_type_ratios",
         "modeler_description" : "The building floor area can be described as a footprint size or as a total building area. The shape can be described by its aspect ratio or can be defined as a set width. Because this measure contains both DOE and DEER inputs, care needs to be taken to choose a template compatable with the selected building types. See readme document for additional guidance.",
         "name" : "Create Bar From Building Type Ratios",
         "result" : 
         {
            "completed_at" : "20220420T141859Z",
            "measure_class_name" : "CreateBarFromBuildingTypeRatios",
            "measure_display_name" : "Create Bar From Building Type Ratios",
            "measure_name" : "create_bar_from_building_type_ratios",
            "measure_taxonomy" : "Envelope.Form",
            "measure_type" : "ModelMeasure",
            "measure_uid" : "6e3a14f8-c3c7-4e03-bc51-bef8a52e1a05",
            "measure_version_id" : "94d7d1a9-125e-4c29-b909-636eff8ce5e3",
            "measure_version_modified" : "20220420T141731Z",
            "measure_xml_checksum" : "2AF3A68E",
            "started_at" : "20220420T141857Z",
            "stderr" : "",
            "stdout" : "",
            "step_errors" : [],
            "step_files" : [],
            "step_final_condition" : "The building finished with 15 spaces.",
            "step_info" : 
            [
               "Replacing argument named climate_zone from current measure with a value of Lookup From Stat File from ChangeBuildingLocation.",
               "0.0 value for aspect ratio will be replaced with smart default for MediumOffice of 1.5.",
               "0.0 value for minimum perimeter multiplier will be replaced with smart default for MediumOffice of 1.0.",
               "0.0 value for floor height will be replaced with smart default for MediumOffice of 13.0.",
               "Creating Space Types for MediumOffice.",
               "Making bar with length of 274 ft and width of 183 ft",
               "Intersecting and matching surfaces in story Story Ground, this will create additional geometry.",
               "Intersecting and matching surfaces in story Story Mid, this will create additional geometry.",
               "Intersecting and matching surfaces in story Story Top, this will create additional geometry.",
               "Created bar envelope with floor area of 1,000,000 ft^2. Total building area is 1,000,000 ft^2."
            ],
            "step_initial_condition" : "The building started with 0 spaces.",
            "step_result" : "Success",
            "step_values" : 
            [
               {
                  "name" : "bldg_type_a",
                  "value" : "MediumOffice"
               },
               {
                  "name" : "bldg_type_a_num_units",
                  "value" : 1
               },
               {
                  "name" : "bldg_type_b",
                  "value" : "SmallOffice"
               },
               {
                  "name" : "bldg_type_b_fract_bldg_area",
                  "value" : 0.0
               },
               {
                  "name" : "bldg_type_b_num_units",
                  "value" : 1
               },
               {
                  "name" : "bldg_type_c",
                  "value" : "SmallOffice"
               },
               {
                  "name" : "bldg_type_c_fract_bldg_area",
                  "value" : 0.0
               },
               {
                  "name" : "bldg_type_c_num_units",
                  "value" : 1
               },
               {
                  "name" : "bldg_type_d",
                  "value" : "SmallOffice"
               },
               {
                  "name" : "bldg_type_d_fract_bldg_area",
                  "value" : 0.0
               },
               {
                  "name" : "bldg_type_d_num_units",
                  "value" : 1
               },
               {
                  "name" : "total_bldg_floor_area",
                  "value" : 10000.0
               },
               {
                  "name" : "single_floor_area",
                  "value" : 50000.0
               },
               {
                  "name" : "floor_height",
                  "value" : 0.0
               },
               {
                  "name" : "custom_height_bar",
                  "value" : true
               },
               {
                  "name" : "num_stories_above_grade",
                  "value" : 20.0
               },
               {
                  "name" : "num_stories_below_grade",
                  "value" : 0
               },
               {
                  "name" : "building_rotation",
                  "value" : 0.0
               },
               {
                  "name" : "template",
                  "value" : "90.1-2010"
               },
               {
                  "name" : "ns_to_ew_ratio",
                  "value" : 0.0
               },
               {
                  "name" : "perim_mult",
                  "value" : 0.0
               },
               {
                  "name" : "bar_sep_dist_mult",
                  "value" : 10.0
               },
               {
                  "name" : "wwr",
                  "value" : 0.69999999999999996
               },
               {
                  "name" : "party_wall_fraction",
                  "value" : 0.0
               },
               {
                  "name" : "party_wall_stories_north",
                  "value" : 0
               },
               {
                  "name" : "party_wall_stories_south",
                  "value" : 0
               },
               {
                  "name" : "party_wall_stories_east",
                  "value" : 0
               },
               {
                  "name" : "party_wall_stories_west",
                  "value" : 0
               },
               {
                  "name" : "bottom_story_ground_exposed_floor",
                  "value" : true
               },
               {
                  "name" : "top_story_exterior_exposed_roof",
                  "value" : true
               },
               {
                  "name" : "story_multiplier",
                  "value" : "Basements Ground Mid Top"
               },
               {
                  "name" : "make_mid_story_surfaces_adiabatic",
                  "value" : true
               },
               {
                  "name" : "bar_division_method",
                  "value" : "Single Space Type - Core and Perimeter"
               },
               {
                  "name" : "double_loaded_corridor",
                  "value" : "Primary Space Type"
               },
               {
                  "name" : "space_type_sort_logic",
                  "value" : "Building Type > Size"
               },
               {
                  "name" : "use_upstream_args",
                  "value" : true
               },
               {
                  "name" : "climate_zone",
                  "value" : "Lookup From Stat File"
               },
               {
                  "name" : "wall_area_ip",
                  "units" : "ft^2",
                  "value" : 237346.441585572
               },
               {
                  "name" : "ns_wall_area_ip",
                  "units" : "ft^2",
                  "value" : 142407.86495134339
               },
               {
                  "name" : "ew_wall_area_ip",
                  "units" : "ft^2",
                  "value" : 94938.576634228608
               },
               {
                  "name" : "floor_area_to_perim_ratio",
                  "value" : 16.694583552757454
               },
               {
                  "name" : "bar_width",
                  "units" : "ft",
                  "value" : 182.57418583505535
               }
            ],
            "step_warnings" : 
            [
               "User-defined single floor area was used for calculation of total building floor area",
               "Cannot use custom height bar with single floor area method, will not create custom height bar."
            ]
         }
      },
      {
         "arguments" : 
         {
            "add_exhaust" : false,
            "add_exterior_lights" : false,
            "add_refrigeration" : false,
            "kitchen_makeup" : "None",
            "onsite_parking_fraction" : 0,
            "template" : "90.1-2010",
            "use_upstream_args" : false
         },
         "description" : "Takes a model with space and stub space types, and assigns constructions, schedules, internal loads, hvac, and other loads such as exterior lights and service water heating.",
         "measure_dir_name" : "create_typical_building_from_model",
         "modeler_description" : "It is important that the template argument chosen for this measure is in line with the buding types for the stub space types of the model passed in.",
         "name" : "Create Typical Building from Model",
         "result" : 
         {
            "completed_at" : "20220420T141917Z",
            "measure_class_name" : "CreateTypicalBuildingFromModel",
            "measure_display_name" : "Create Typical Building from Model",
            "measure_name" : "create_typical_building_from_model",
            "measure_taxonomy" : "Whole Building.Space Types",
            "measure_type" : "ModelMeasure",
            "measure_uid" : "339a2e3a-273c-4494-bb50-bfe586a0647c",
            "measure_version_id" : "8024aeb3-803e-4ad5-b862-8b50aa8dc155",
            "measure_version_modified" : "20200624T003816Z",
            "measure_xml_checksum" : "EE13F09F",
            "started_at" : "20220420T141859Z",
            "stderr" : "",
[...]
            "step_result" : "Success",
            "step_values" : 
            [
               {
                  "name" : "variable_name",
                  "value" : "Site Outdoor Air Drybulb Temperature"
               },
               {
                  "name" : "reporting_frequency",
                  "value" : "timestep"
               },
               {
                  "name" : "key_value",
                  "value" : "*"
               }
            ],
            "step_warnings" : []
         }
      },
      {
         "arguments" : 
         {
            "reporting_frequency" : "timestep",
            "variable_name" : "Air System Total Cooling Energy"
         },
         "description" : "This measure adds an output variable at the requested reporting frequency.",
         "measure_dir_name" : "AddOutputVariable",
         "modeler_description" : "The measure just passes in the string and does not validate that it is a proper variable name. It is up to the user to know this or to look at the .rdd file from a previous simulation run.",
         "name" : "Add Output Variable 10",
         "result" : 
         {
            "completed_at" : "20220420T141918Z",
            "measure_class_name" : "AddOutputVariable",
            "measure_display_name" : "Add Output Variable",
            "measure_name" : "add_output_variable",
            "measure_taxonomy" : "Reporting.QAQC",
            "measure_type" : "ModelMeasure",
            "measure_uid" : "2a058afb-e349-49ae-a4bf-2c56a42b4352",
            "measure_version_id" : "3eecceae-5a6f-4d69-ab65-567f9ffeb8b3",
            "measure_version_modified" : "20200229T024320Z",
            "measure_xml_checksum" : "0CA4D54C",
            "started_at" : "20220420T141918Z",
            "stderr" : "",
            "stdout" : "",
            "step_errors" : [],
            "step_files" : [],
            "step_final_condition" : "The model finished with 11 output variable objects.",
            "step_info" : 
            [
               "Adding output variable for Air System Total Cooling Energy reporting timestep.",
               "Key value for variable is *."
            ],
            "step_initial_condition" : "The model started with 10 output variable objects.",
            "step_result" : "Success",
            "step_values" : 
            [
               {
                  "name" : "variable_name",
                  "value" : "Air System Total Cooling Energy"
               },
               {
                  "name" : "reporting_frequency",
                  "value" : "timestep"
               },
               {
                  "name" : "key_value",
                  "value" : "*"
               }
            ],
            "step_warnings" : []
         }
      },
      {
         "arguments" : 
         {
            "choice" : "All fenestration surfaces",
            "glztype" : "VIG",
            "t_switching" : 25
         },
         "description" : "This measure allows you to inject IDF objects into an OSM generated IDF prior to passing the IDF off to EnergyPlus.",
         "measure_dir_name" : "a_inject_window_specific_idf_objects",
         "modeler_description" : "This provides a stepping stone between exporting an IDF from OpenStudio and hand editing the IDF and writing fully functional OpenStudio EnergyPlus measures.\n\nThis measure works for when you just need to add new IDF objects. If you need to interact with or alter IDF objects made by the OpenStudio forward translator, you will want to write an EnergyPlus measure wtih more use-case specific logic.",
         "name" : " Inject Window Specific IDF Objects",
         "result" : 
         {
            "completed_at" : "20220420T141919Z",
            "measure_class_name" : "AInjectWindowSpecificIDFObjects",
            "measure_display_name" : " Inject Window Specific IDF Objects",
            "measure_name" : "a_inject_window_specific_idf_objects",
            "measure_taxonomy" : "Envelope.Fenestration",
            "measure_type" : "EnergyPlusMeasure",
            "measure_uid" : "b5cd7571-8ee9-4657-845b-43513fd2b983",
            "measure_version_id" : "69df7477-802e-400a-8553-a297abc0e9f4",
            "measure_version_modified" : "20220112T161925Z",
            "measure_xml_checksum" : "79C5D5D1",
            "started_at" : "20220420T141918Z",
            "stderr" : "",
            "stdout" : "",
            "step_errors" : [],
            "step_files" : [],
            "step_final_condition" : "The final IDF file had 1042 objects.",
            "step_info" : 
            [
               "Reading window idf from: C:\\SpectralIDFs",
               "Reading window idf of: C:\\SpectralIDFs/VIG.idf",
               "Replacing window on Sub Surface 1",
               "Changing [U 0.72 SHGC 0.25 Sgl Ref-B-M Tint 6mm] to [VIG]",
               "Replacing window on Sub Surface 10",
               "Changing [U 0.72 SHGC 0.25 Sgl Ref-B-M Tint 6mm] to [VIG]",
               "Replacing window on Sub Surface 7",
               "Changing [U 0.72 SHGC 0.25 Sgl Ref-B-M Tint 6mm] to [VIG]",
               "Replacing window on Sub Surface 2",
               "Changing [U 0.72 SHGC 0.25 Sgl Ref-B-M Tint 6mm] to [VIG]",
               "Replacing window on Sub Surface 5",
               "Changing [U 0.72 SHGC 0.25 Sgl Ref-B-M Tint 6mm] to [VIG]",
               "Replacing window on Sub Surface 4",
               "Changing [U 0.72 SHGC 0.25 Sgl Ref-B-M Tint 6mm] to [VIG]",
               "Replacing window on Sub Surface 12",
               "Changing [U 0.72 SHGC 0.25 Sgl Ref-B-M Tint 6mm] to [VIG]",
               "Replacing window on Sub Surface 6",
               "Changing [U 0.72 SHGC 0.25 Sgl Ref-B-M Tint 6mm] to [VIG]",
               "Replacing window on Sub Surface 11",
               "Changing [U 0.72 SHGC 0.25 Sgl Ref-B-M Tint 6mm] to [VIG]",
               "Replacing window on Sub Surface 3",
               "Changing [U 0.72 SHGC 0.25 Sgl Ref-B-M Tint 6mm] to [VIG]",
               "Replacing window on Sub Surface 8",
               "Changing [U 0.72 SHGC 0.25 Sgl Ref-B-M Tint 6mm] to [VIG]",
               "Replacing window on Sub Surface 9",
               "Changing [U 0.72 SHGC 0.25 Sgl Ref-B-M Tint 6mm] to [VIG]"
            ],
            "step_initial_condition" : "Imposing fenestration construction name change on All fenestration surfaces surface(s).",
            "step_result" : "Success",
            "step_values" : 
            [
               {
                  "name" : "glztype",
                  "value" : "VIG"
               },
               {
                  "name" : "choice",
                  "value" : "All fenestration surfaces"
               },
               {
                  "name" : "idf_path",
                  "value" : "C:\\SpectralIDFs"
               },
               {
                  "name" : "t_switching",
                  "value" : 25.0
               },
               {
                  "name" : "serverrun",
                  "value" : false
               }
            ],
            "step_warnings" : []
         }
      },
      {
         "arguments" : {},
         "description" : "Report PV",
         "measure_dir_name" : "WindowPV_reporting",
         "modeler_description" : "Report measure",
         "name" : "WindowPV Reporting",
         "result" : 
         {
            "completed_at" : "20220420T141926Z",
            "measure_class_name" : "WindowPVReporting",
            "measure_display_name" : "WindowPV Reporting",
            "measure_name" : "window_pv_reporting",
            "measure_taxonomy" : "Reporting.QAQC",
            "measure_type" : "ReportingMeasure",
            "measure_uid" : "431bcf0c-88e8-43be-97f6-40b274da8bd3",
            "measure_version_id" : "d950bb25-cda3-46a7-8e28-8fb9a523406c",
            "measure_version_modified" : "20210723T174455Z",
            "measure_xml_checksum" : "909877B3",
            "started_at" : "20220420T141925Z",
            "stderr" : "",
            "stdout" : "",
            "step_errors" : [],
            "step_files" : [],
            "step_info" : 
            [
               "Sql file not empty",
               "reading monthly electricity consumptions from sqlfile",
               "reading monthly gas consumptions from sqlfile",
               "Generator produced DC electricity energy (GJ): 0.0 (0.0 kWh)",
               "Capacity Factor: 0.0",
               "Total Electricity for Building: 643.45 GJ",
               "Total Electricity for Heating: 0.0 GJ",
               "Total Electricity for Cooling: 145.68 GJ",
               "Total Electricity for Interior Lighting: 135.48 GJ",
               "Total Electricity for Exterior Lighting: 0.0 GJ",
               "Total Electricity for Plug Load: 180.19 GJ",
               "Total Electricity for Fan: 58.54 GJ",
               "Total Electricity for Pump: 30.53 GJ",
               "Total Electricity for Heat Rejection: 8.45 GJ",
               "Total Electricity for Humidification: 0.0 GJ",
               "Total Electricity for Heat Recovery: 84.57 GJ",
               "Total Electricity for Water System: 0.0 GJ",
               "Total Electricity for Refrigeration: 0.0 GJ",
               "Total Gas for Building: 15.25 GJ",
               "Total Gas for Heating: 0.01 GJ",
               "Total Gas for Interior Equipment: 0.0 GJ",
               "Total Gas for Water System: 15.24 GJ"
            ],
            "step_result" : "Success",
            "step_values" : 
            [
               {
                  "name" : "total_pv",
                  "units" : "GJ",
                  "value" : 0.0
               },
               {
                  "name" : "panel_dc_gen_jan",
                  "units" : "GJ",
                  "value" : 0
               },
               {
                  "name" : "panel_dc_gen_feb",
                  "units" : "GJ",
                  "value" : 0
               },
               {
                  "name" : "panel_dc_gen_mar",
                  "units" : "GJ",
                  "value" : 0
               },
               {
                  "name" : "panel_dc_gen_apr",
                  "units" : "GJ",
                  "value" : 0
               },
               {
                  "name" : "panel_dc_gen_may",
                  "units" : "GJ",
                  "value" : 0
               },
               {
                  "name" : "panel_dc_gen_jun",
                  "units" : "GJ",
                  "value" : 0
               },
               {
                  "name" : "panel_dc_gen_jul",
                  "units" : "GJ",
                  "value" : 0
               },
               {
                  "name" : "panel_dc_gen_aug",
                  "units" : "GJ",
                  "value" : 0
               },
               {
                  "name" : "panel_dc_gen_sep",
                  "units" : "GJ",
                  "value" : 0
               },
               {
                  "name" : "panel_dc_gen_oct",
                  "units" : "GJ",
                  "value" : 0
               },
               {
                  "name" : "panel_dc_gen_nov",
                  "units" : "GJ",
                  "value" : 0
               },
               {
                  "name" : "panel_dc_gen_dec",
                  "units" : "GJ",
                  "value" : 0
               },
               {
                  "name" : "light_energy_jan",
                  "units" : "GJ",
                  "value" : 0
               },
               {
                  "name" : "light_energy_feb",
                  "units" : "GJ",
                  "value" : 0
               },
               {
                  "name" : "light_energy_mar",
                  "units" : "GJ",
                  "value" : 0
               },
               {
                  "name" : "light_energy_apr",
                  "units" : "GJ",
                  "value" : 0
               },
               {
                  "name" : "light_energy_may",
                  "units" : "GJ",
                  "value" : 0
               },
               {
                  "name" : "light_energy_jun",
                  "units" : "GJ",
                  "value" : 0
               },
               {
                  "name" : "light_energy_jul",
                  "units" : "GJ",
                  "value" : 0
               },
               {
                  "name" : "light_energy_aug",
                  "units" : "GJ",
                  "value" : 0
               },
               {
                  "name" : "light_energy_sep",
                  "units" : "GJ",
                  "value" : 0
               },
               {
                  "name" : "light_energy_oct",
                  "units" : "GJ",
                  "value" : 0
               },
               {
                  "name" : "light_energy_nov",
                  "units" : "GJ",
                  "value" : 0
               },
               {
                  "name" : "light_energy_dec",
                  "units" : "GJ",
                  "value" : 0
               },
               {
                  "name" : "building_elec_jan",
                  "units" : "GJ",
                  "value" : 0
               },
               {
                  "name" : "building_elec_feb",
                  "units" : "GJ",
                  "value" : 0
               },
               {
                  "name" : "building_elec_mar",
                  "units" : "GJ",
                  "value" : 0
               },
               {
                  "name" : "building_elec_apr",
                  "units" : "GJ",
                  "value" : 0
               },
               {
                  "name" : "building_elec_may",
                  "units" : "GJ",
                  "value" : 0
               },
               {
                  "name" : "building_elec_jun",
                  "units" : "GJ",
                  "value" : 0
               },
               {
                  "name" : "building_elec_jul",
                  "units" : "GJ",
                  "value" : 0
               },
               {
                  "name" : "building_elec_aug",
                  "units" : "GJ",
                  "value" : 0
               },
               {
                  "name" : "building_elec_sep",
                  "units" : "GJ",
                  "value" : 0
               },
               {
                  "name" : "building_elec_oct",
                  "units" : "GJ",
                  "value" : 0
               },
               {
                  "name" : "building_elec_nov",
                  "units" : "GJ",
                  "value" : 0
               },
               {
                  "name" : "building_elec_dec",
                  "units" : "GJ",
                  "value" : 0
               },
               {
                  "name" : "building_gas_jan",
                  "units" : "GJ",
                  "value" : 0
               },
               {
                  "name" : "building_gas_feb",
                  "units" : "GJ",
                  "value" : 0
               },
               {
                  "name" : "building_gas_mar",
                  "units" : "GJ",
                  "value" : 0
               },
               {
                  "name" : "building_gas_apr",
                  "units" : "GJ",
                  "value" : 0
               },
               {
                  "name" : "building_gas_may",
                  "units" : "GJ",
                  "value" : 0
               },
               {
                  "name" : "building_gas_jun",
                  "units" : "GJ",
                  "value" : 0
               },
               {
                  "name" : "building_gas_jul",
                  "units" : "GJ",
                  "value" : 0
               },
               {
                  "name" : "building_gas_aug",
                  "units" : "GJ",
                  "value" : 0
               },
               {
                  "name" : "building_gas_sep",
                  "units" : "GJ",
                  "value" : 0
               },
               {
                  "name" : "building_gas_oct",
                  "units" : "GJ",
                  "value" : 0
               },
               {
                  "name" : "building_gas_nov",
                  "units" : "GJ",
                  "value" : 0
               },
               {
                  "name" : "building_gas_dec",
                  "units" : "GJ",
                  "value" : 0
               },
               {
                  "name" : "building_area_ft",
                  "units" : "ft^2",
                  "value" : 1000000.0
               },
               {
                  "name" : "capacity_factor",
                  "units" : "%",
                  "value" : 0.0
               },
               {
                  "name" : "total_electricity",
                  "units" : "GJ",
                  "value" : 643.45001200000002
               },
               {
                  "name" : "total_electricity_heating",
                  "units" : "GJ",
                  "value" : 0.0
               },
               {
                  "name" : "total_electricity_cooling",
                  "units" : "GJ",
                  "value" : 145.679993
               },
               {
                  "name" : "total_electricity_lighting_interior",
                  "units" : "GJ",
                  "value" : 135.479996
               },
               {
                  "name" : "total_electricity_lighting_exterior",
                  "units" : "GJ",
                  "value" : 0.0
               },
               {
                  "name" : "total_electricity_equipment_interior",
                  "units" : "GJ",
                  "value" : 180.19000199999999
               },
               {
                  "name" : "total_electricity_fan",
                  "units" : "GJ",
                  "value" : 58.540000999999997
               },
               {
                  "name" : "total_electricity_pump",
                  "units" : "GJ",
                  "value" : 30.530000999999999
               },
               {
                  "name" : "total_electricity_heatrejection",
                  "units" : "GJ",
                  "value" : 8.4499999999999993
               },
               {
                  "name" : "total_electricity_humidification",
                  "units" : "GJ",
                  "value" : 0.0
               },
               {
                  "name" : "total_electricity_heatrecovery",
                  "units" : "GJ",
                  "value" : 84.569999999999993
               },
               {
                  "name" : "total_electricity_watersystem",
                  "units" : "GJ",
                  "value" : 0.0
               },
               {
                  "name" : "total_electricity_refrigeration",
                  "units" : "GJ",
                  "value" : 0.0
               },
               {
                  "name" : "total_gas",
                  "units" : "GJ",
                  "value" : 15.25
               },
               {
                  "name" : "total_gas_heating",
                  "units" : "GJ",
                  "value" : 0.01
               },
               {
                  "name" : "total_gas_equipment_interior",
                  "units" : "GJ",
                  "value" : 0.0
               },
               {
                  "name" : "total_gas_watersystem",
                  "units" : "GJ",
                  "value" : 15.24
               }
            ],
            "step_warnings" : []
         }
      }
   ],
   "updated_at" : "20220420T141927Z"
}