Program Version,EnergyPlus, Version 9.4.0-998c4b761e, YMD=2022.04.20 08:19
! This file shows details about the branches, nodes, and other
! elements of the flow connections.
! This file is intended for use in "debugging" potential problems
! that may also be detected by the program, but may be more easily
! identified by "eye".
! This file is also intended to support software which draws a
! schematic diagram of the HVAC system.
! ===============================================================
! #Nodes,<Number of Unique Nodes>
 #Nodes,19
! <Node>,<NodeNumber>,<Node Name>,<Node Fluid Type>,<# Times Node Referenced After Definition>
 Node,1,NODE 16,Water,2
 Node,2,NODE 22,Water,1
 Node,3,NODE 18,Water,1
 Node,4,NODE 23,Water,1
 Node,5,NODE 25,Water,1
 Node,6,NODE 26,Water,1
 Node,7,NODE 28,Water,1
 Node,8,NODE 17,Water,4
 Node,9,NODE 19,Water,2
 Node,10,NODE 24,Water,1
 Node,11,NODE 21,Water,1
 Node,12,NODE 27,Water,1
 Node,13,NODE 30,Water,1
 Node,14,NODE 31,Water,1
 Node,15,OFFICE SHARED SERVICE WATER LOOP DEMAND BYPASS PIPE INLET NODE,Water,1
 Node,16,OFFICE SHARED SERVICE WATER LOOP DEMAND BYPASS PIPE OUTLET NODE,Water,1
 Node,17,NODE 29,Water,1
 Node,18,NODE 20,Water,2
 Node,19,MODEL OUTDOOR AIR NODE,Air,0
! ===============================================================
! Suspicious nodes have 0 references.  It is normal for some nodes, however.
! Listing nodes with 0 references (culled from previous list):
! <Suspicious Node>,<NodeNumber>,<Node Name>,<Node Fluid Type>,<# Times Node Referenced After Definition>
 Suspicious Node,19,MODEL OUTDOOR AIR NODE,Air,0
! ===============================================================
! <#Branch Lists>,<Number of Branch Lists>
 #Branch Lists,2
! <Branch List>,<Branch List Count>,<Branch List Name>,<Loop Name>,<Loop Type>,<Number of Branches>
! <Branch>,<Branch Count>,<Branch Name>,<Loop Name>,<Loop Type>,<Branch Inlet Node Name>,<Branch Outlet Node Name>
 Branch List,1,OFFICE SHARED SERVICE WATER LOOP SUPPLY BRANCHES,OFFICE SHARED SERVICE WATER LOOP,Plant Supply,4
   Branch,1,OFFICE SHARED SERVICE WATER LOOP SUPPLY INLET BRANCH,OFFICE SHARED SERVICE WATER LOOP,Plant Supply,NODE 16,NODE 22
   Branch,2,OFFICE SHARED SERVICE WATER LOOP SUPPLY BRANCH 1,OFFICE SHARED SERVICE WATER LOOP,Plant Supply,NODE 18,NODE 23
   Branch,3,OFFICE SHARED SERVICE WATER LOOP SUPPLY BRANCH 2,OFFICE SHARED SERVICE WATER LOOP,Plant Supply,NODE 25,NODE 26
   Branch,4,OFFICE SHARED SERVICE WATER LOOP SUPPLY OUTLET BRANCH,OFFICE SHARED SERVICE WATER LOOP,Plant Supply,NODE 28,NODE 17
 Branch List,2,OFFICE SHARED SERVICE WATER LOOP DEMAND BRANCHES,OFFICE SHARED SERVICE WATER LOOP,Plant Demand,5
   Branch,1,OFFICE SHARED SERVICE WATER LOOP DEMAND INLET BRANCH,OFFICE SHARED SERVICE WATER LOOP,Plant Demand,NODE 19,NODE 24
   Branch,2,OFFICE SHARED SERVICE WATER LOOP DEMAND BRANCH 1,OFFICE SHARED SERVICE WATER LOOP,Plant Demand,NODE 21,NODE 27
   Branch,3,OFFICE SHARED SERVICE WATER LOOP DEMAND BRANCH 2,OFFICE SHARED SERVICE WATER LOOP,Plant Demand,NODE 30,NODE 31
   Branch,4,OFFICE SHARED SERVICE WATER LOOP DEMAND BYPASS BRANCH,OFFICE SHARED SERVICE WATER LOOP,Plant Demand,OFFICE SHARED SERVICE WATER LOOP DEMAND BYPASS PIPE INLET NODE,OFFICE SHARED SERVICE WATER LOOP DEMAND BYPASS PIPE OUTLET NODE
   Branch,5,OFFICE SHARED SERVICE WATER LOOP DEMAND OUTLET BRANCH,OFFICE SHARED SERVICE WATER LOOP,Plant Demand,NODE 29,NODE 20
! ===============================================================
! <#Supply Air Paths>,<Number of Supply Air Paths>
 #Supply Air Paths,0
! <Supply Air Path>,<Supply Air Path Count>,<Supply Air Path Name>,<AirLoopHVAC Name>
! <#Components on Supply Air Path>,<Number of Components>
! <Supply Air Path Component>,<Component Count>,<Component Type>,<Component Name>,<AirLoopHVAC Name>
! <#Outlet Nodes on Supply Air Path Component>,<Number of Nodes>
! <Supply Air Path Component Nodes>,<Node Count>,<Component Type>,<Component Name>,<Inlet Node Name>,<Outlet Node Name>,<AirLoopHVAC Name>
! ===============================================================
! <#Return Air Paths>,<Number of Return Air Paths>
 #Return Air Paths,0
! <Return Air Path>,<Return Air Path Count>,<Return Air Path Name>,<AirLoopHVAC Name>
! <#Components on Return Air Path>,<Number of Components>
! <Return Air Path Component>,<Component Count>,<Component Type>,<Component Name>,<AirLoopHVAC Name>
! <#Inlet Nodes on Return Air Path Component>,<Number of Nodes>
! <Return Air Path Component Nodes>,<Node Count>,<Component Type>,<Component Name>,<Inlet Node Name>,<Outlet Node Name>,<AirLoopHVAC Name>
! ===============================================================
! #Outdoor Air Nodes,<Number of Outdoor Air Nodes>
 #Outdoor Air Nodes,1
! <Outdoor Air Node>,<NodeNumber>,<Node Name>
 Outdoor Air Node,19,MODEL OUTDOOR AIR NODE
! ===============================================================
! <#Component Sets>,<Number of Component Sets>
 #Component Sets,9
! <Component Set>,<Component Set Count>,<Parent Object Type>,<Parent Object Name>,<Component Type>,<Component Name>,<Inlet Node ID>,<Outlet Node ID>,<Description>
 Component Set,1,BRANCH,OFFICE SHARED SERVICE WATER LOOP SUPPLY INLET BRANCH,PUMP:CONSTANTSPEED,OFFICE SHARED SERVICE WATER LOOP CIRCULATOR PUMP,NODE 16,NODE 22,Water Nodes
 Component Set,2,BRANCH,OFFICE SHARED SERVICE WATER LOOP SUPPLY BRANCH 1,WATERHEATER:MIXED,569GAL NATURALGAS WATER HEATER - 569KBTU/HR,NODE 18,NODE 23,Use Side Water Nodes
 Component Set,3,BRANCH,OFFICE SHARED SERVICE WATER LOOP SUPPLY BRANCH 2,PIPE:ADIABATIC,PIPE ADIABATIC 1,NODE 25,NODE 26,Pipe Nodes
 Component Set,4,BRANCH,OFFICE SHARED SERVICE WATER LOOP SUPPLY OUTLET BRANCH,PIPE:ADIABATIC,PIPE ADIABATIC 3,NODE 28,NODE 17,Pipe Nodes
 Component Set,5,BRANCH,OFFICE SHARED SERVICE WATER LOOP DEMAND INLET BRANCH,PIPE:INDOOR,OFFICE SHARED SERVICE WATER LOOP PIPE 827.2135954999578FT,NODE 19,NODE 24,Pipe Nodes
 Component Set,6,BRANCH,OFFICE SHARED SERVICE WATER LOOP DEMAND BRANCH 1,PIPE:ADIABATIC,PIPE ADIABATIC 2,NODE 21,NODE 27,Pipe Nodes
 Component Set,7,BRANCH,OFFICE SHARED SERVICE WATER LOOP DEMAND BRANCH 2,WATERUSE:CONNECTIONS,OFFICE WHOLEBUILDING - MD OFFICE - 90.1-2010 WUC 15.85GPM AT 140F,NODE 30,NODE 31,DHW Nodes
 Component Set,8,BRANCH,OFFICE SHARED SERVICE WATER LOOP DEMAND BYPASS BRANCH,PIPE:ADIABATIC,OFFICE SHARED SERVICE WATER LOOP DEMAND BYPASS PIPE,OFFICE SHARED SERVICE WATER LOOP DEMAND BYPASS PIPE INLET NODE,OFFICE SHARED SERVICE WATER LOOP DEMAND BYPASS PIPE OUTLET NODE,Pipe Nodes
 Component Set,9,BRANCH,OFFICE SHARED SERVICE WATER LOOP DEMAND OUTLET BRANCH,PIPE:ADIABATIC,PIPE ADIABATIC 4,NODE 29,NODE 20,Pipe Nodes
! ===============================================================
! <# Plant Loops>,<Number of Plant Loops>
 #Plant Loops,1
! <Plant Loop>,<Plant Loop Name>,<Loop Type>,<Inlet Node Name>,<Outlet Node Name>,<Branch List>,<Connector List>
! <Plant Loop Connector>,<Connector Type>,<Connector Name>,<Loop Name>,<Loop Type>,<Number of Inlets/Outlets>
! <Plant Loop Connector Branches>,<Connector Node Count>,<Connector Type>,<Connector Name>,<Inlet Branch>,<Outlet Branch>,<Loop Name>,<Loop Type>
! <Plant Loop Connector Nodes>,<Connector Node Count>,<Connector Type>,<Connector Name>,<Inlet Node>,<Outlet Node>,<Loop Name>,<Loop Type>
! <Plant Loop Supply Connection>,<Plant Loop Name>,<Supply Side Outlet Node Name>,<Demand Side Inlet Node Name>
! <Plant Loop Return Connection>,<Plant Loop Name>,<Demand Side Outlet Node Name>,<Supply Side Inlet Node Name>
 Plant Loop,OFFICE SHARED SERVICE WATER LOOP,Demand,NODE 19,NODE 20,OFFICE SHARED SERVICE WATER LOOP DEMAND BRANCHES,OFFICE SHARED SERVICE WATER LOOP DEMAND CONNECTOR LIST
   Plant Loop Connector,Splitter,OFFICE SHARED SERVICE WATER LOOP DEMAND SPLITTER,OFFICE SHARED SERVICE WATER LOOP,Demand,3
     Plant Loop Connector Branches,1,Splitter,OFFICE SHARED SERVICE WATER LOOP DEMAND SPLITTER,OFFICE SHARED SERVICE WATER LOOP DEMAND INLET BRANCH,OFFICE SHARED SERVICE WATER LOOP DEMAND BRANCH 1,OFFICE SHARED SERVICE WATER LOOP,Demand
     Plant Loop Connector Nodes,   1,Splitter,OFFICE SHARED SERVICE WATER LOOP DEMAND SPLITTER,NODE 24,NODE 21,OFFICE SHARED SERVICE WATER LOOP,Demand
     Plant Loop Connector Branches,2,Splitter,OFFICE SHARED SERVICE WATER LOOP DEMAND SPLITTER,OFFICE SHARED SERVICE WATER LOOP DEMAND INLET BRANCH,OFFICE SHARED SERVICE WATER LOOP DEMAND BRANCH 2,OFFICE SHARED SERVICE WATER LOOP,Demand
     Plant Loop Connector Nodes,   2,Splitter,OFFICE SHARED SERVICE WATER LOOP DEMAND SPLITTER,NODE 24,NODE 30,OFFICE SHARED SERVICE WATER LOOP,Demand
     Plant Loop Connector Branches,3,Splitter,OFFICE SHARED SERVICE WATER LOOP DEMAND SPLITTER,OFFICE SHARED SERVICE WATER LOOP DEMAND INLET BRANCH,OFFICE SHARED SERVICE WATER LOOP DEMAND BYPASS BRANCH,OFFICE SHARED SERVICE WATER LOOP,Demand
     Plant Loop Connector Nodes,   3,Splitter,OFFICE SHARED SERVICE WATER LOOP DEMAND SPLITTER,NODE 24,OFFICE SHARED SERVICE WATER LOOP DEMAND BYPASS PIPE INLET NODE,OFFICE SHARED SERVICE WATER LOOP,Demand
   Plant Loop Connector,Mixer,OFFICE SHARED SERVICE WATER LOOP DEMAND MIXER,OFFICE SHARED SERVICE WATER LOOP,Demand,3
     Plant Loop Connector Branches,1,Mixer,OFFICE SHARED SERVICE WATER LOOP DEMAND MIXER,OFFICE SHARED SERVICE WATER LOOP DEMAND BRANCH 1,OFFICE SHARED SERVICE WATER LOOP DEMAND OUTLET BRANCH,OFFICE SHARED SERVICE WATER LOOP,Demand
     Plant Loop Connector Nodes,   1,Mixer,OFFICE SHARED SERVICE WATER LOOP DEMAND MIXER,NODE 27,NODE 29,OFFICE SHARED SERVICE WATER LOOP,Demand
     Plant Loop Connector Branches,2,Mixer,OFFICE SHARED SERVICE WATER LOOP DEMAND MIXER,OFFICE SHARED SERVICE WATER LOOP DEMAND BRANCH 2,OFFICE SHARED SERVICE WATER LOOP DEMAND OUTLET BRANCH,OFFICE SHARED SERVICE WATER LOOP,Demand
     Plant Loop Connector Nodes,   2,Mixer,OFFICE SHARED SERVICE WATER LOOP DEMAND MIXER,NODE 31,NODE 29,OFFICE SHARED SERVICE WATER LOOP,Demand
     Plant Loop Connector Branches,3,Mixer,OFFICE SHARED SERVICE WATER LOOP DEMAND MIXER,OFFICE SHARED SERVICE WATER LOOP DEMAND BYPASS BRANCH,OFFICE SHARED SERVICE WATER LOOP DEMAND OUTLET BRANCH,OFFICE SHARED SERVICE WATER LOOP,Demand
     Plant Loop Connector Nodes,   3,Mixer,OFFICE SHARED SERVICE WATER LOOP DEMAND MIXER,OFFICE SHARED SERVICE WATER LOOP DEMAND BYPASS PIPE OUTLET NODE,NODE 29,OFFICE SHARED SERVICE WATER LOOP,Demand
 Plant Loop,OFFICE SHARED SERVICE WATER LOOP,Supply,NODE 16,NODE 17,OFFICE SHARED SERVICE WATER LOOP SUPPLY BRANCHES,OFFICE SHARED SERVICE WATER LOOP SUPPLY CONNECTOR LIST
   Plant Loop Connector,Splitter,OFFICE SHARED SERVICE WATER LOOP SUPPLY SPLITTER,OFFICE SHARED SERVICE WATER LOOP,Supply,2
     Plant Loop Connector Branches,1,Splitter,OFFICE SHARED SERVICE WATER LOOP SUPPLY SPLITTER,OFFICE SHARED SERVICE WATER LOOP SUPPLY INLET BRANCH,OFFICE SHARED SERVICE WATER LOOP SUPPLY BRANCH 1,OFFICE SHARED SERVICE WATER LOOP,Supply
     Plant Loop Connector Nodes,   1,Splitter,OFFICE SHARED SERVICE WATER LOOP SUPPLY SPLITTER,NODE 22,NODE 18,OFFICE SHARED SERVICE WATER LOOP,Supply
     Plant Loop Connector Branches,2,Splitter,OFFICE SHARED SERVICE WATER LOOP SUPPLY SPLITTER,OFFICE SHARED SERVICE WATER LOOP SUPPLY INLET BRANCH,OFFICE SHARED SERVICE WATER LOOP SUPPLY BRANCH 2,OFFICE SHARED SERVICE WATER LOOP,Supply
     Plant Loop Connector Nodes,   2,Splitter,OFFICE SHARED SERVICE WATER LOOP SUPPLY SPLITTER,NODE 22,NODE 25,OFFICE SHARED SERVICE WATER LOOP,Supply
   Plant Loop Connector,Mixer,OFFICE SHARED SERVICE WATER LOOP SUPPLY MIXER,OFFICE SHARED SERVICE WATER LOOP,Supply,2
     Plant Loop Connector Branches,1,Mixer,OFFICE SHARED SERVICE WATER LOOP SUPPLY MIXER,OFFICE SHARED SERVICE WATER LOOP SUPPLY BRANCH 1,OFFICE SHARED SERVICE WATER LOOP SUPPLY OUTLET BRANCH,OFFICE SHARED SERVICE WATER LOOP,Supply
     Plant Loop Connector Nodes,   1,Mixer,OFFICE SHARED SERVICE WATER LOOP SUPPLY MIXER,NODE 23,NODE 28,OFFICE SHARED SERVICE WATER LOOP,Supply
     Plant Loop Connector Branches,2,Mixer,OFFICE SHARED SERVICE WATER LOOP SUPPLY MIXER,OFFICE SHARED SERVICE WATER LOOP SUPPLY BRANCH 2,OFFICE SHARED SERVICE WATER LOOP SUPPLY OUTLET BRANCH,OFFICE SHARED SERVICE WATER LOOP,Supply
     Plant Loop Connector Nodes,   2,Mixer,OFFICE SHARED SERVICE WATER LOOP SUPPLY MIXER,NODE 26,NODE 28,OFFICE SHARED SERVICE WATER LOOP,Supply
 Plant Loop Supply Connection,OFFICE SHARED SERVICE WATER LOOP,NODE 17,NODE 19
 Plant Loop Return Connection,OFFICE SHARED SERVICE WATER LOOP,NODE 20,NODE 16
! ===============================================================
! <# Condenser Loops>,<Number of Condenser Loops>
 #Condenser Loops,0
! <Condenser Loop>,<Condenser Loop Name>,<Loop Type>,<Inlet Node Name>,<Outlet Node Name>,<Branch List>,<Connector List>
! <Condenser Loop Connector>,<Connector Type>,<Connector Name>,<Loop Name>,<Loop Type>,<Number of Inlets/Outlets>
! <Condenser Loop Connector Branches>,<Connector Node Count>,<Connector Type>,<Connector Name>,<Inlet Branch>,<Outlet Branch>,<Loop Name>,<Loop Type>
! <Condenser Loop Connector Nodes>,<Connector Node Count>,<Connector Type>,<Connector Name>,<Inlet Node>,<Outlet Node>,<Loop Name>,<Loop Type>
! <Condenser Loop Supply Connection>,<Condenser Loop Name>,<Supply Side Outlet Node Name>,<Demand Side Inlet Node Name>
! <Condenser Loop Return Connection>,<Condenser Loop Name>,<Demand Side Outlet Node Name>,<Supply Side Inlet Node Name>
! ===============================================================
! ===============================================================
! <#AirLoopHVACs>,<Number of AirLoopHVACs>
 #AirLoopHVACs,0
! <AirLoopHVAC>,<Air Loop Name>,<# Return Nodes>,<# Supply Nodes>,<# Zones Cooled>,<# Zones Heated>,<Outdoor Air Used>
! <AirLoop Return Connections>,<Connection Count>,<AirLoopHVAC Name>,<Zn Eqp Return Node #>,<Zn Eqp Return Node Name>,<AirLoop Return Node #>,<Air Loop Return Node Name>
! <AirLoop Supply Connections>,<Connection Count>,<AirLoopHVAC Name>,<Zn Eqp Supply Node #>,<Zn Eqp Supply Node Name>,<AirLoop Supply Node #>,<Air Loop Supply Node Name>
! <Cooled Zone Info>,<Cooled Zone Count>,<Cooled Zone Name>,<Cooled Zone Inlet Node #>,<Cooled Zone Inlet Node Name>,<AirLoopHVAC Name>
! <Heated Zone Info>,<Heated Zone Count>,<Heated Zone Name>,<Heated Zone Inlet Node #>,<Heated Zone Inlet Node Name>,<AirLoopHVAC Name>
! <Outdoor Air Connections>,<OA Inlet Node #>,<OA Return Air Inlet Node Name>,<OA Outlet Node #>,<OA Mixed Air Outlet Node Name>,<AirLoopHVAC Name>
! <AirLoopHVAC Connector>,<Connector Type>,<Connector Name>,<Loop Name>,<Loop Type>,<Number of Inlets/Outlets>
! <AirLoopHVAC Connector Branches>,<Connector Node Count>,<Connector Type>,<Connector Name>,<Inlet Branch>,<Outlet Branch>,<Loop Name>,<Loop Type>
! <AirLoopHVAC Connector Nodes>,<Connector Node Count>,<Connector Type>,<Connector Name>,<Inlet Node>,<Outlet Node>,<Loop Name>,<Loop Type>
! ===============================================================
! <#Parent Node Connections>,<Number of Parent Node Connections>
 #Parent Node Connections,23
! <Parent Node Connection>,<Node Name>,<Node ObjectType>,<Node ObjectName>,<Node ConnectionType>,<Node FluidStream>
 Parent Node Connection,NODE 16,BRANCH,OFFICE SHARED SERVICE WATER LOOP SUPPLY INLET BRANCH,Inlet,1
 Parent Node Connection,NODE 22,BRANCH,OFFICE SHARED SERVICE WATER LOOP SUPPLY INLET BRANCH,Outlet,1
 Parent Node Connection,NODE 18,BRANCH,OFFICE SHARED SERVICE WATER LOOP SUPPLY BRANCH 1,Inlet,1
 Parent Node Connection,NODE 23,BRANCH,OFFICE SHARED SERVICE WATER LOOP SUPPLY BRANCH 1,Outlet,1
 Parent Node Connection,NODE 25,BRANCH,OFFICE SHARED SERVICE WATER LOOP SUPPLY BRANCH 2,Inlet,1
 Parent Node Connection,NODE 26,BRANCH,OFFICE SHARED SERVICE WATER LOOP SUPPLY BRANCH 2,Outlet,1
 Parent Node Connection,NODE 28,BRANCH,OFFICE SHARED SERVICE WATER LOOP SUPPLY OUTLET BRANCH,Inlet,1
 Parent Node Connection,NODE 17,BRANCH,OFFICE SHARED SERVICE WATER LOOP SUPPLY OUTLET BRANCH,Outlet,1
 Parent Node Connection,NODE 19,BRANCH,OFFICE SHARED SERVICE WATER LOOP DEMAND INLET BRANCH,Inlet,1
 Parent Node Connection,NODE 24,BRANCH,OFFICE SHARED SERVICE WATER LOOP DEMAND INLET BRANCH,Outlet,1
 Parent Node Connection,NODE 21,BRANCH,OFFICE SHARED SERVICE WATER LOOP DEMAND BRANCH 1,Inlet,1
 Parent Node Connection,NODE 27,BRANCH,OFFICE SHARED SERVICE WATER LOOP DEMAND BRANCH 1,Outlet,1
 Parent Node Connection,NODE 30,BRANCH,OFFICE SHARED SERVICE WATER LOOP DEMAND BRANCH 2,Inlet,1
 Parent Node Connection,NODE 31,BRANCH,OFFICE SHARED SERVICE WATER LOOP DEMAND BRANCH 2,Outlet,1
 Parent Node Connection,OFFICE SHARED SERVICE WATER LOOP DEMAND BYPASS PIPE INLET NODE,BRANCH,OFFICE SHARED SERVICE WATER LOOP DEMAND BYPASS BRANCH,Inlet,1
 Parent Node Connection,OFFICE SHARED SERVICE WATER LOOP DEMAND BYPASS PIPE OUTLET NODE,BRANCH,OFFICE SHARED SERVICE WATER LOOP DEMAND BYPASS BRANCH,Outlet,1
 Parent Node Connection,NODE 29,BRANCH,OFFICE SHARED SERVICE WATER LOOP DEMAND OUTLET BRANCH,Inlet,1
 Parent Node Connection,NODE 20,BRANCH,OFFICE SHARED SERVICE WATER LOOP DEMAND OUTLET BRANCH,Outlet,1
 Parent Node Connection,NODE 16,PLANTLOOP,OFFICE SHARED SERVICE WATER LOOP,Inlet,1
 Parent Node Connection,NODE 17,PLANTLOOP,OFFICE SHARED SERVICE WATER LOOP,Outlet,1
 Parent Node Connection,NODE 19,PLANTLOOP,OFFICE SHARED SERVICE WATER LOOP,Inlet,1
 Parent Node Connection,NODE 20,PLANTLOOP,OFFICE SHARED SERVICE WATER LOOP,Outlet,1
 Parent Node Connection,NODE 17,PLANTLOOP,OFFICE SHARED SERVICE WATER LOOP,Sensor,1
! ===============================================================
! <#Non-Parent Node Connections>,<Number of Non-Parent Node Connections>
 #Non-Parent Node Connections,34
! <Non-Parent Node Connection>,<Node Name>,<Node ObjectType>,<Node ObjectName>,<Node ConnectionType>,<Node FluidStream>
 Non-Parent Node Connection,MODEL OUTDOOR AIR NODE,OUTDOORAIR:NODE,OutdoorAir:Node,OutdoorAir,1
 Non-Parent Node Connection,NODE 17,SETPOINTMANAGER:SCHEDULED,SERVICE HOT WATER SETPOINT MANAGER,Setpoint,1
 Non-Parent Node Connection,NODE 19,PIPE:INDOOR,OFFICE SHARED SERVICE WATER LOOP PIPE 827.2135954999578FT,Inlet,1
 Non-Parent Node Connection,NODE 24,PIPE:INDOOR,OFFICE SHARED SERVICE WATER LOOP PIPE 827.2135954999578FT,Outlet,1
 Non-Parent Node Connection,NODE 25,PIPE:ADIABATIC,PIPE ADIABATIC 1,Inlet,1
 Non-Parent Node Connection,NODE 26,PIPE:ADIABATIC,PIPE ADIABATIC 1,Outlet,1
 Non-Parent Node Connection,NODE 28,PIPE:ADIABATIC,PIPE ADIABATIC 3,Inlet,1
 Non-Parent Node Connection,NODE 17,PIPE:ADIABATIC,PIPE ADIABATIC 3,Outlet,1
 Non-Parent Node Connection,NODE 21,PIPE:ADIABATIC,PIPE ADIABATIC 2,Inlet,1
 Non-Parent Node Connection,NODE 27,PIPE:ADIABATIC,PIPE ADIABATIC 2,Outlet,1
 Non-Parent Node Connection,OFFICE SHARED SERVICE WATER LOOP DEMAND BYPASS PIPE INLET NODE,PIPE:ADIABATIC,OFFICE SHARED SERVICE WATER LOOP DEMAND BYPASS PIPE,Inlet,1
 Non-Parent Node Connection,OFFICE SHARED SERVICE WATER LOOP DEMAND BYPASS PIPE OUTLET NODE,PIPE:ADIABATIC,OFFICE SHARED SERVICE WATER LOOP DEMAND BYPASS PIPE,Outlet,1
 Non-Parent Node Connection,NODE 29,PIPE:ADIABATIC,PIPE ADIABATIC 4,Inlet,1
 Non-Parent Node Connection,NODE 20,PIPE:ADIABATIC,PIPE ADIABATIC 4,Outlet,1
 Non-Parent Node Connection,NODE 30,WATERUSE:CONNECTIONS,OFFICE WHOLEBUILDING - MD OFFICE - 90.1-2010 WUC 15.85GPM AT 140F,Inlet,1
 Non-Parent Node Connection,NODE 31,WATERUSE:CONNECTIONS,OFFICE WHOLEBUILDING - MD OFFICE - 90.1-2010 WUC 15.85GPM AT 140F,Outlet,1
 Non-Parent Node Connection,NODE 24,CONNECTOR:SPLITTER,OFFICE SHARED SERVICE WATER LOOP DEMAND SPLITTER,Inlet,1
 Non-Parent Node Connection,NODE 21,CONNECTOR:SPLITTER,OFFICE SHARED SERVICE WATER LOOP DEMAND SPLITTER,Outlet,1
 Non-Parent Node Connection,NODE 30,CONNECTOR:SPLITTER,OFFICE SHARED SERVICE WATER LOOP DEMAND SPLITTER,Outlet,1
 Non-Parent Node Connection,OFFICE SHARED SERVICE WATER LOOP DEMAND BYPASS PIPE INLET NODE,CONNECTOR:SPLITTER,OFFICE SHARED SERVICE WATER LOOP DEMAND SPLITTER,Outlet,1
 Non-Parent Node Connection,NODE 29,CONNECTOR:MIXER,OFFICE SHARED SERVICE WATER LOOP DEMAND MIXER,Outlet,1
 Non-Parent Node Connection,NODE 27,CONNECTOR:MIXER,OFFICE SHARED SERVICE WATER LOOP DEMAND MIXER,Inlet,1
 Non-Parent Node Connection,NODE 31,CONNECTOR:MIXER,OFFICE SHARED SERVICE WATER LOOP DEMAND MIXER,Inlet,1
 Non-Parent Node Connection,OFFICE SHARED SERVICE WATER LOOP DEMAND BYPASS PIPE OUTLET NODE,CONNECTOR:MIXER,OFFICE SHARED SERVICE WATER LOOP DEMAND MIXER,Inlet,1
 Non-Parent Node Connection,NODE 18,WATERHEATER:MIXED,569GAL NATURALGAS WATER HEATER - 569KBTU/HR,Inlet,1
 Non-Parent Node Connection,NODE 23,WATERHEATER:MIXED,569GAL NATURALGAS WATER HEATER - 569KBTU/HR,Outlet,1
 Non-Parent Node Connection,NODE 22,CONNECTOR:SPLITTER,OFFICE SHARED SERVICE WATER LOOP SUPPLY SPLITTER,Inlet,1
 Non-Parent Node Connection,NODE 18,CONNECTOR:SPLITTER,OFFICE SHARED SERVICE WATER LOOP SUPPLY SPLITTER,Outlet,1
 Non-Parent Node Connection,NODE 25,CONNECTOR:SPLITTER,OFFICE SHARED SERVICE WATER LOOP SUPPLY SPLITTER,Outlet,1
 Non-Parent Node Connection,NODE 28,CONNECTOR:MIXER,OFFICE SHARED SERVICE WATER LOOP SUPPLY MIXER,Outlet,1
 Non-Parent Node Connection,NODE 23,CONNECTOR:MIXER,OFFICE SHARED SERVICE WATER LOOP SUPPLY MIXER,Inlet,1
 Non-Parent Node Connection,NODE 26,CONNECTOR:MIXER,OFFICE SHARED SERVICE WATER LOOP SUPPLY MIXER,Inlet,1
 Non-Parent Node Connection,NODE 16,PUMP:CONSTANTSPEED,OFFICE SHARED SERVICE WATER LOOP CIRCULATOR PUMP,Inlet,1
 Non-Parent Node Connection,NODE 22,PUMP:CONSTANTSPEED,OFFICE SHARED SERVICE WATER LOOP CIRCULATOR PUMP,Outlet,1
