! Program Version,EnergyPlus, Version 9.4.0-998c4b761e, YMD=2022.04.20 08:19,
! Output:Meter Objects (applicable to this run)
Output:Meter,Electricity:Facility,hourly; !- [J]
Output:Meter:Cumulative,Electricity:Facility,hourly; !- [J]
Output:Meter,Electricity:Building,hourly; !- [J]
Output:Meter:Cumulative,Electricity:Building,hourly; !- [J]
Output:Meter,Electricity:Zone:ZONE CORE SPACE - STORY GROUND,hourly; !- [J]
Output:Meter:Cumulative,Electricity:Zone:ZONE CORE SPACE - STORY GROUND,hourly; !- [J]
Output:Meter,InteriorLights:Electricity,hourly; !- [J]
Output:Meter:Cumulative,InteriorLights:Electricity,hourly; !- [J]
Output:Meter,InteriorLights:Electricity:Zone:ZONE CORE SPACE - STORY GROUND,hourly; !- [J]
Output:Meter:Cumulative,InteriorLights:Electricity:Zone:ZONE CORE SPACE - STORY GROUND,hourly; !- [J]
Output:Meter,General:InteriorLights:Electricity,hourly; !- [J]
Output:Meter:Cumulative,General:InteriorLights:Electricity,hourly; !- [J]
Output:Meter,Electricity:Zone:ZONE CORE SPACE - STORY MID,hourly; !- [J]
Output:Meter:Cumulative,Electricity:Zone:ZONE CORE SPACE - STORY MID,hourly; !- [J]
Output:Meter,InteriorLights:Electricity:Zone:ZONE CORE SPACE - STORY MID,hourly; !- [J]
Output:Meter:Cumulative,InteriorLights:Electricity:Zone:ZONE CORE SPACE - STORY MID,hourly; !- [J]
Output:Meter,Electricity:Zone:ZONE CORE SPACE - STORY TOP,hourly; !- [J]
Output:Meter:Cumulative,Electricity:Zone:ZONE CORE SPACE - STORY TOP,hourly; !- [J]
Output:Meter,InteriorLights:Electricity:Zone:ZONE CORE SPACE - STORY TOP,hourly; !- [J]
Output:Meter:Cumulative,InteriorLights:Electricity:Zone:ZONE CORE SPACE - STORY TOP,hourly; !- [J]
Output:Meter,Electricity:Zone:ZONE EAST PERIMETER SPACE - STORY GROUND,hourly; !- [J]
Output:Meter:Cumulative,Electricity:Zone:ZONE EAST PERIMETER SPACE - STORY GROUND,hourly; !- [J]
Output:Meter,InteriorLights:Electricity:Zone:ZONE EAST PERIMETER SPACE - STORY GROUND,hourly; !- [J]
Output:Meter:Cumulative,InteriorLights:Electricity:Zone:ZONE EAST PERIMETER SPACE - STORY GROUND,hourly; !- [J]
Output:Meter,Electricity:Zone:ZONE EAST PERIMETER SPACE - STORY MID,hourly; !- [J]
Output:Meter:Cumulative,Electricity:Zone:ZONE EAST PERIMETER SPACE - STORY MID,hourly; !- [J]
Output:Meter,InteriorLights:Electricity:Zone:ZONE EAST PERIMETER SPACE - STORY MID,hourly; !- [J]
Output:Meter:Cumulative,InteriorLights:Electricity:Zone:ZONE EAST PERIMETER SPACE - STORY MID,hourly; !- [J]
Output:Meter,Electricity:Zone:ZONE EAST PERIMETER SPACE - STORY TOP,hourly; !- [J]
Output:Meter:Cumulative,Electricity:Zone:ZONE EAST PERIMETER SPACE - STORY TOP,hourly; !- [J]
Output:Meter,InteriorLights:Electricity:Zone:ZONE EAST PERIMETER SPACE - STORY TOP,hourly; !- [J]
Output:Meter:Cumulative,InteriorLights:Electricity:Zone:ZONE EAST PERIMETER SPACE - STORY TOP,hourly; !- [J]
Output:Meter,Electricity:Zone:ZONE NORTH PERIMETER SPACE - STORY GROUND,hourly; !- [J]
Output:Meter:Cumulative,Electricity:Zone:ZONE NORTH PERIMETER SPACE - STORY GROUND,hourly; !- [J]
Output:Meter,InteriorLights:Electricity:Zone:ZONE NORTH PERIMETER SPACE - STORY GROUND,hourly; !- [J]
Output:Meter:Cumulative,InteriorLights:Electricity:Zone:ZONE NORTH PERIMETER SPACE - STORY GROUND,hourly; !- [J]
Output:Meter,Electricity:Zone:ZONE NORTH PERIMETER SPACE - STORY MID,hourly; !- [J]
Output:Meter:Cumulative,Electricity:Zone:ZONE NORTH PERIMETER SPACE - STORY MID,hourly; !- [J]
Output:Meter,InteriorLights:Electricity:Zone:ZONE NORTH PERIMETER SPACE - STORY MID,hourly; !- [J]
Output:Meter:Cumulative,InteriorLights:Electricity:Zone:ZONE NORTH PERIMETER SPACE - STORY MID,hourly; !- [J]
Output:Meter,Electricity:Zone:ZONE NORTH PERIMETER SPACE - STORY TOP,hourly; !- [J]
Output:Meter:Cumulative,Electricity:Zone:ZONE NORTH PERIMETER SPACE - STORY TOP,hourly; !- [J]
Output:Meter,InteriorLights:Electricity:Zone:ZONE NORTH PERIMETER SPACE - STORY TOP,hourly; !- [J]
Output:Meter:Cumulative,InteriorLights:Electricity:Zone:ZONE NORTH PERIMETER SPACE - STORY TOP,hourly; !- [J]
Output:Meter,Electricity:Zone:ZONE SOUTH PERIMETER SPACE - STORY GROUND,hourly; !- [J]
Output:Meter:Cumulative,Electricity:Zone:ZONE SOUTH PERIMETER SPACE - STORY GROUND,hourly; !- [J]
Output:Meter,InteriorLights:Electricity:Zone:ZONE SOUTH PERIMETER SPACE - STORY GROUND,hourly; !- [J]
Output:Meter:Cumulative,InteriorLights:Electricity:Zone:ZONE SOUTH PERIMETER SPACE - STORY GROUND,hourly; !- [J]
Output:Meter,Electricity:Zone:ZONE SOUTH PERIMETER SPACE - STORY MID,hourly; !- [J]
Output:Meter:Cumulative,Electricity:Zone:ZONE SOUTH PERIMETER SPACE - STORY MID,hourly; !- [J]
Output:Meter,InteriorLights:Electricity:Zone:ZONE SOUTH PERIMETER SPACE - STORY MID,hourly; !- [J]
Output:Meter:Cumulative,InteriorLights:Electricity:Zone:ZONE SOUTH PERIMETER SPACE - STORY MID,hourly; !- [J]
Output:Meter,Electricity:Zone:ZONE SOUTH PERIMETER SPACE - STORY TOP,hourly; !- [J]
Output:Meter:Cumulative,Electricity:Zone:ZONE SOUTH PERIMETER SPACE - STORY TOP,hourly; !- [J]
Output:Meter,InteriorLights:Electricity:Zone:ZONE SOUTH PERIMETER SPACE - STORY TOP,hourly; !- [J]
Output:Meter:Cumulative,InteriorLights:Electricity:Zone:ZONE SOUTH PERIMETER SPACE - STORY TOP,hourly; !- [J]
Output:Meter,Electricity:Zone:ZONE WEST PERIMETER SPACE - STORY GROUND,hourly; !- [J]
Output:Meter:Cumulative,Electricity:Zone:ZONE WEST PERIMETER SPACE - STORY GROUND,hourly; !- [J]
Output:Meter,InteriorLights:Electricity:Zone:ZONE WEST PERIMETER SPACE - STORY GROUND,hourly; !- [J]
Output:Meter:Cumulative,InteriorLights:Electricity:Zone:ZONE WEST PERIMETER SPACE - STORY GROUND,hourly; !- [J]
Output:Meter,Electricity:Zone:ZONE WEST PERIMETER SPACE - STORY MID,hourly; !- [J]
Output:Meter:Cumulative,Electricity:Zone:ZONE WEST PERIMETER SPACE - STORY MID,hourly; !- [J]
Output:Meter,InteriorLights:Electricity:Zone:ZONE WEST PERIMETER SPACE - STORY MID,hourly; !- [J]
Output:Meter:Cumulative,InteriorLights:Electricity:Zone:ZONE WEST PERIMETER SPACE - STORY MID,hourly; !- [J]
Output:Meter,Electricity:Zone:ZONE WEST PERIMETER SPACE - STORY TOP,hourly; !- [J]
Output:Meter:Cumulative,Electricity:Zone:ZONE WEST PERIMETER SPACE - STORY TOP,hourly; !- [J]
Output:Meter,InteriorLights:Electricity:Zone:ZONE WEST PERIMETER SPACE - STORY TOP,hourly; !- [J]
Output:Meter:Cumulative,InteriorLights:Electricity:Zone:ZONE WEST PERIMETER SPACE - STORY TOP,hourly; !- [J]
Output:Meter,InteriorEquipment:Electricity,hourly; !- [J]
Output:Meter:Cumulative,InteriorEquipment:Electricity,hourly; !- [J]
Output:Meter,InteriorEquipment:Electricity:Zone:ZONE CORE SPACE - STORY GROUND,hourly; !- [J]
Output:Meter:Cumulative,InteriorEquipment:Electricity:Zone:ZONE CORE SPACE - STORY GROUND,hourly; !- [J]
Output:Meter,Elevators:InteriorEquipment:Electricity,hourly; !- [J]
Output:Meter:Cumulative,Elevators:InteriorEquipment:Electricity,hourly; !- [J]
Output:Meter,General:InteriorEquipment:Electricity,hourly; !- [J]
Output:Meter:Cumulative,General:InteriorEquipment:Electricity,hourly; !- [J]
Output:Meter,InteriorEquipment:Electricity:Zone:ZONE CORE SPACE - STORY MID,hourly; !- [J]
Output:Meter:Cumulative,InteriorEquipment:Electricity:Zone:ZONE CORE SPACE - STORY MID,hourly; !- [J]
Output:Meter,InteriorEquipment:Electricity:Zone:ZONE CORE SPACE - STORY TOP,hourly; !- [J]
Output:Meter:Cumulative,InteriorEquipment:Electricity:Zone:ZONE CORE SPACE - STORY TOP,hourly; !- [J]
Output:Meter,InteriorEquipment:Electricity:Zone:ZONE EAST PERIMETER SPACE - STORY GROUND,hourly; !- [J]
Output:Meter:Cumulative,InteriorEquipment:Electricity:Zone:ZONE EAST PERIMETER SPACE - STORY GROUND,hourly; !- [J]
Output:Meter,InteriorEquipment:Electricity:Zone:ZONE EAST PERIMETER SPACE - STORY MID,hourly; !- [J]
Output:Meter:Cumulative,InteriorEquipment:Electricity:Zone:ZONE EAST PERIMETER SPACE - STORY MID,hourly; !- [J]
Output:Meter,InteriorEquipment:Electricity:Zone:ZONE EAST PERIMETER SPACE - STORY TOP,hourly; !- [J]
Output:Meter:Cumulative,InteriorEquipment:Electricity:Zone:ZONE EAST PERIMETER SPACE - STORY TOP,hourly; !- [J]
Output:Meter,InteriorEquipment:Electricity:Zone:ZONE NORTH PERIMETER SPACE - STORY GROUND,hourly; !- [J]
Output:Meter:Cumulative,InteriorEquipment:Electricity:Zone:ZONE NORTH PERIMETER SPACE - STORY GROUND,hourly; !- [J]
Output:Meter,InteriorEquipment:Electricity:Zone:ZONE NORTH PERIMETER SPACE - STORY MID,hourly; !- [J]
Output:Meter:Cumulative,InteriorEquipment:Electricity:Zone:ZONE NORTH PERIMETER SPACE - STORY MID,hourly; !- [J]
Output:Meter,InteriorEquipment:Electricity:Zone:ZONE NORTH PERIMETER SPACE - STORY TOP,hourly; !- [J]
Output:Meter:Cumulative,InteriorEquipment:Electricity:Zone:ZONE NORTH PERIMETER SPACE - STORY TOP,hourly; !- [J]
Output:Meter,InteriorEquipment:Electricity:Zone:ZONE SOUTH PERIMETER SPACE - STORY GROUND,hourly; !- [J]
Output:Meter:Cumulative,InteriorEquipment:Electricity:Zone:ZONE SOUTH PERIMETER SPACE - STORY GROUND,hourly; !- [J]
Output:Meter,InteriorEquipment:Electricity:Zone:ZONE SOUTH PERIMETER SPACE - STORY MID,hourly; !- [J]
Output:Meter:Cumulative,InteriorEquipment:Electricity:Zone:ZONE SOUTH PERIMETER SPACE - STORY MID,hourly; !- [J]
Output:Meter,InteriorEquipment:Electricity:Zone:ZONE SOUTH PERIMETER SPACE - STORY TOP,hourly; !- [J]
Output:Meter:Cumulative,InteriorEquipment:Electricity:Zone:ZONE SOUTH PERIMETER SPACE - STORY TOP,hourly; !- [J]
Output:Meter,InteriorEquipment:Electricity:Zone:ZONE WEST PERIMETER SPACE - STORY GROUND,hourly; !- [J]
Output:Meter:Cumulative,InteriorEquipment:Electricity:Zone:ZONE WEST PERIMETER SPACE - STORY GROUND,hourly; !- [J]
Output:Meter,InteriorEquipment:Electricity:Zone:ZONE WEST PERIMETER SPACE - STORY MID,hourly; !- [J]
Output:Meter:Cumulative,InteriorEquipment:Electricity:Zone:ZONE WEST PERIMETER SPACE - STORY MID,hourly; !- [J]
Output:Meter,InteriorEquipment:Electricity:Zone:ZONE WEST PERIMETER SPACE - STORY TOP,hourly; !- [J]
Output:Meter:Cumulative,InteriorEquipment:Electricity:Zone:ZONE WEST PERIMETER SPACE - STORY TOP,hourly; !- [J]
Output:Meter,EnergyTransfer:Facility,hourly; !- [J]
Output:Meter:Cumulative,EnergyTransfer:Facility,hourly; !- [J]
Output:Meter,EnergyTransfer:Building,hourly; !- [J]
Output:Meter:Cumulative,EnergyTransfer:Building,hourly; !- [J]
Output:Meter,EnergyTransfer:Zone:ZONE CORE SPACE - STORY GROUND,hourly; !- [J]
Output:Meter:Cumulative,EnergyTransfer:Zone:ZONE CORE SPACE - STORY GROUND,hourly; !- [J]
Output:Meter,Heating:EnergyTransfer,hourly; !- [J]
Output:Meter:Cumulative,Heating:EnergyTransfer,hourly; !- [J]
Output:Meter,Heating:EnergyTransfer:Zone:ZONE CORE SPACE - STORY GROUND,hourly; !- [J]
Output:Meter:Cumulative,Heating:EnergyTransfer:Zone:ZONE CORE SPACE - STORY GROUND,hourly; !- [J]
Output:Meter,General:Heating:EnergyTransfer,hourly; !- [J]
Output:Meter:Cumulative,General:Heating:EnergyTransfer,hourly; !- [J]
Output:Meter,Cooling:EnergyTransfer,hourly; !- [J]
Output:Meter:Cumulative,Cooling:EnergyTransfer,hourly; !- [J]
Output:Meter,Cooling:EnergyTransfer:Zone:ZONE CORE SPACE - STORY GROUND,hourly; !- [J]
Output:Meter:Cumulative,Cooling:EnergyTransfer:Zone:ZONE CORE SPACE - STORY GROUND,hourly; !- [J]
Output:Meter,General:Cooling:EnergyTransfer,hourly; !- [J]
Output:Meter:Cumulative,General:Cooling:EnergyTransfer,hourly; !- [J]
Output:Meter,EnergyTransfer:Zone:ZONE CORE SPACE - STORY MID,hourly; !- [J]
Output:Meter:Cumulative,EnergyTransfer:Zone:ZONE CORE SPACE - STORY MID,hourly; !- [J]
Output:Meter,Heating:EnergyTransfer:Zone:ZONE CORE SPACE - STORY MID,hourly; !- [J]
Output:Meter:Cumulative,Heating:EnergyTransfer:Zone:ZONE CORE SPACE - STORY MID,hourly; !- [J]
Output:Meter,Cooling:EnergyTransfer:Zone:ZONE CORE SPACE - STORY MID,hourly; !- [J]
Output:Meter:Cumulative,Cooling:EnergyTransfer:Zone:ZONE CORE SPACE - STORY MID,hourly; !- [J]
Output:Meter,EnergyTransfer:Zone:ZONE CORE SPACE - STORY TOP,hourly; !- [J]
Output:Meter:Cumulative,EnergyTransfer:Zone:ZONE CORE SPACE - STORY TOP,hourly; !- [J]
Output:Meter,Heating:EnergyTransfer:Zone:ZONE CORE SPACE - STORY TOP,hourly; !- [J]
Output:Meter:Cumulative,Heating:EnergyTransfer:Zone:ZONE CORE SPACE - STORY TOP,hourly; !- [J]
Output:Meter,Cooling:EnergyTransfer:Zone:ZONE CORE SPACE - STORY TOP,hourly; !- [J]
Output:Meter:Cumulative,Cooling:EnergyTransfer:Zone:ZONE CORE SPACE - STORY TOP,hourly; !- [J]
Output:Meter,EnergyTransfer:Zone:ZONE EAST PERIMETER SPACE - STORY GROUND,hourly; !- [J]
Output:Meter:Cumulative,EnergyTransfer:Zone:ZONE EAST PERIMETER SPACE - STORY GROUND,hourly; !- [J]
Output:Meter,Heating:EnergyTransfer:Zone:ZONE EAST PERIMETER SPACE - STORY GROUND,hourly; !- [J]
Output:Meter:Cumulative,Heating:EnergyTransfer:Zone:ZONE EAST PERIMETER SPACE - STORY GROUND,hourly; !- [J]
Output:Meter,Cooling:EnergyTransfer:Zone:ZONE EAST PERIMETER SPACE - STORY GROUND,hourly; !- [J]
Output:Meter:Cumulative,Cooling:EnergyTransfer:Zone:ZONE EAST PERIMETER SPACE - STORY GROUND,hourly; !- [J]
Output:Meter,EnergyTransfer:Zone:ZONE EAST PERIMETER SPACE - STORY MID,hourly; !- [J]
Output:Meter:Cumulative,EnergyTransfer:Zone:ZONE EAST PERIMETER SPACE - STORY MID,hourly; !- [J]
Output:Meter,Heating:EnergyTransfer:Zone:ZONE EAST PERIMETER SPACE - STORY MID,hourly; !- [J]
Output:Meter:Cumulative,Heating:EnergyTransfer:Zone:ZONE EAST PERIMETER SPACE - STORY MID,hourly; !- [J]
Output:Meter,Cooling:EnergyTransfer:Zone:ZONE EAST PERIMETER SPACE - STORY MID,hourly; !- [J]
Output:Meter:Cumulative,Cooling:EnergyTransfer:Zone:ZONE EAST PERIMETER SPACE - STORY MID,hourly; !- [J]
Output:Meter,EnergyTransfer:Zone:ZONE EAST PERIMETER SPACE - STORY TOP,hourly; !- [J]
Output:Meter:Cumulative,EnergyTransfer:Zone:ZONE EAST PERIMETER SPACE - STORY TOP,hourly; !- [J]
Output:Meter,Heating:EnergyTransfer:Zone:ZONE EAST PERIMETER SPACE - STORY TOP,hourly; !- [J]
Output:Meter:Cumulative,Heating:EnergyTransfer:Zone:ZONE EAST PERIMETER SPACE - STORY TOP,hourly; !- [J]
Output:Meter,Cooling:EnergyTransfer:Zone:ZONE EAST PERIMETER SPACE - STORY TOP,hourly; !- [J]
Output:Meter:Cumulative,Cooling:EnergyTransfer:Zone:ZONE EAST PERIMETER SPACE - STORY TOP,hourly; !- [J]
Output:Meter,EnergyTransfer:Zone:ZONE NORTH PERIMETER SPACE - STORY GROUND,hourly; !- [J]
Output:Meter:Cumulative,EnergyTransfer:Zone:ZONE NORTH PERIMETER SPACE - STORY GROUND,hourly; !- [J]
Output:Meter,Heating:EnergyTransfer:Zone:ZONE NORTH PERIMETER SPACE - STORY GROUND,hourly; !- [J]
Output:Meter:Cumulative,Heating:EnergyTransfer:Zone:ZONE NORTH PERIMETER SPACE - STORY GROUND,hourly; !- [J]
Output:Meter,Cooling:EnergyTransfer:Zone:ZONE NORTH PERIMETER SPACE - STORY GROUND,hourly; !- [J]
Output:Meter:Cumulative,Cooling:EnergyTransfer:Zone:ZONE NORTH PERIMETER SPACE - STORY GROUND,hourly; !- [J]
Output:Meter,EnergyTransfer:Zone:ZONE NORTH PERIMETER SPACE - STORY MID,hourly; !- [J]
Output:Meter:Cumulative,EnergyTransfer:Zone:ZONE NORTH PERIMETER SPACE - STORY MID,hourly; !- [J]
Output:Meter,Heating:EnergyTransfer:Zone:ZONE NORTH PERIMETER SPACE - STORY MID,hourly; !- [J]
Output:Meter:Cumulative,Heating:EnergyTransfer:Zone:ZONE NORTH PERIMETER SPACE - STORY MID,hourly; !- [J]
Output:Meter,Cooling:EnergyTransfer:Zone:ZONE NORTH PERIMETER SPACE - STORY MID,hourly; !- [J]
Output:Meter:Cumulative,Cooling:EnergyTransfer:Zone:ZONE NORTH PERIMETER SPACE - STORY MID,hourly; !- [J]
Output:Meter,EnergyTransfer:Zone:ZONE NORTH PERIMETER SPACE - STORY TOP,hourly; !- [J]
Output:Meter:Cumulative,EnergyTransfer:Zone:ZONE NORTH PERIMETER SPACE - STORY TOP,hourly; !- [J]
Output:Meter,Heating:EnergyTransfer:Zone:ZONE NORTH PERIMETER SPACE - STORY TOP,hourly; !- [J]
Output:Meter:Cumulative,Heating:EnergyTransfer:Zone:ZONE NORTH PERIMETER SPACE - STORY TOP,hourly; !- [J]
Output:Meter,Cooling:EnergyTransfer:Zone:ZONE NORTH PERIMETER SPACE - STORY TOP,hourly; !- [J]
Output:Meter:Cumulative,Cooling:EnergyTransfer:Zone:ZONE NORTH PERIMETER SPACE - STORY TOP,hourly; !- [J]
Output:Meter,EnergyTransfer:Zone:ZONE SOUTH PERIMETER SPACE - STORY GROUND,hourly; !- [J]
Output:Meter:Cumulative,EnergyTransfer:Zone:ZONE SOUTH PERIMETER SPACE - STORY GROUND,hourly; !- [J]
Output:Meter,Heating:EnergyTransfer:Zone:ZONE SOUTH PERIMETER SPACE - STORY GROUND,hourly; !- [J]
Output:Meter:Cumulative,Heating:EnergyTransfer:Zone:ZONE SOUTH PERIMETER SPACE - STORY GROUND,hourly; !- [J]
Output:Meter,Cooling:EnergyTransfer:Zone:ZONE SOUTH PERIMETER SPACE - STORY GROUND,hourly; !- [J]
Output:Meter:Cumulative,Cooling:EnergyTransfer:Zone:ZONE SOUTH PERIMETER SPACE - STORY GROUND,hourly; !- [J]
Output:Meter,EnergyTransfer:Zone:ZONE SOUTH PERIMETER SPACE - STORY MID,hourly; !- [J]
Output:Meter:Cumulative,EnergyTransfer:Zone:ZONE SOUTH PERIMETER SPACE - STORY MID,hourly; !- [J]
Output:Meter,Heating:EnergyTransfer:Zone:ZONE SOUTH PERIMETER SPACE - STORY MID,hourly; !- [J]
Output:Meter:Cumulative,Heating:EnergyTransfer:Zone:ZONE SOUTH PERIMETER SPACE - STORY MID,hourly; !- [J]
Output:Meter,Cooling:EnergyTransfer:Zone:ZONE SOUTH PERIMETER SPACE - STORY MID,hourly; !- [J]
Output:Meter:Cumulative,Cooling:EnergyTransfer:Zone:ZONE SOUTH PERIMETER SPACE - STORY MID,hourly; !- [J]
Output:Meter,EnergyTransfer:Zone:ZONE SOUTH PERIMETER SPACE - STORY TOP,hourly; !- [J]
Output:Meter:Cumulative,EnergyTransfer:Zone:ZONE SOUTH PERIMETER SPACE - STORY TOP,hourly; !- [J]
Output:Meter,Heating:EnergyTransfer:Zone:ZONE SOUTH PERIMETER SPACE - STORY TOP,hourly; !- [J]
Output:Meter:Cumulative,Heating:EnergyTransfer:Zone:ZONE SOUTH PERIMETER SPACE - STORY TOP,hourly; !- [J]
Output:Meter,Cooling:EnergyTransfer:Zone:ZONE SOUTH PERIMETER SPACE - STORY TOP,hourly; !- [J]
Output:Meter:Cumulative,Cooling:EnergyTransfer:Zone:ZONE SOUTH PERIMETER SPACE - STORY TOP,hourly; !- [J]
Output:Meter,EnergyTransfer:Zone:ZONE WEST PERIMETER SPACE - STORY GROUND,hourly; !- [J]
Output:Meter:Cumulative,EnergyTransfer:Zone:ZONE WEST PERIMETER SPACE - STORY GROUND,hourly; !- [J]
Output:Meter,Heating:EnergyTransfer:Zone:ZONE WEST PERIMETER SPACE - STORY GROUND,hourly; !- [J]
Output:Meter:Cumulative,Heating:EnergyTransfer:Zone:ZONE WEST PERIMETER SPACE - STORY GROUND,hourly; !- [J]
Output:Meter,Cooling:EnergyTransfer:Zone:ZONE WEST PERIMETER SPACE - STORY GROUND,hourly; !- [J]
Output:Meter:Cumulative,Cooling:EnergyTransfer:Zone:ZONE WEST PERIMETER SPACE - STORY GROUND,hourly; !- [J]
Output:Meter,EnergyTransfer:Zone:ZONE WEST PERIMETER SPACE - STORY MID,hourly; !- [J]
Output:Meter:Cumulative,EnergyTransfer:Zone:ZONE WEST PERIMETER SPACE - STORY MID,hourly; !- [J]
Output:Meter,Heating:EnergyTransfer:Zone:ZONE WEST PERIMETER SPACE - STORY MID,hourly; !- [J]
Output:Meter:Cumulative,Heating:EnergyTransfer:Zone:ZONE WEST PERIMETER SPACE - STORY MID,hourly; !- [J]
Output:Meter,Cooling:EnergyTransfer:Zone:ZONE WEST PERIMETER SPACE - STORY MID,hourly; !- [J]
Output:Meter:Cumulative,Cooling:EnergyTransfer:Zone:ZONE WEST PERIMETER SPACE - STORY MID,hourly; !- [J]
Output:Meter,EnergyTransfer:Zone:ZONE WEST PERIMETER SPACE - STORY TOP,hourly; !- [J]
Output:Meter:Cumulative,EnergyTransfer:Zone:ZONE WEST PERIMETER SPACE - STORY TOP,hourly; !- [J]
Output:Meter,Heating:EnergyTransfer:Zone:ZONE WEST PERIMETER SPACE - STORY TOP,hourly; !- [J]
Output:Meter:Cumulative,Heating:EnergyTransfer:Zone:ZONE WEST PERIMETER SPACE - STORY TOP,hourly; !- [J]
Output:Meter,Cooling:EnergyTransfer:Zone:ZONE WEST PERIMETER SPACE - STORY TOP,hourly; !- [J]
Output:Meter:Cumulative,Cooling:EnergyTransfer:Zone:ZONE WEST PERIMETER SPACE - STORY TOP,hourly; !- [J]
Output:Meter,ElectricityPurchased:Facility,hourly; !- [J]
Output:Meter:Cumulative,ElectricityPurchased:Facility,hourly; !- [J]
Output:Meter,ElectricityPurchased:Plant,hourly; !- [J]
Output:Meter:Cumulative,ElectricityPurchased:Plant,hourly; !- [J]
Output:Meter,Cogeneration:ElectricityPurchased,hourly; !- [J]
Output:Meter:Cumulative,Cogeneration:ElectricityPurchased,hourly; !- [J]
Output:Meter,General:Cogeneration:ElectricityPurchased,hourly; !- [J]
Output:Meter:Cumulative,General:Cogeneration:ElectricityPurchased,hourly; !- [J]
Output:Meter,ElectricitySurplusSold:Facility,hourly; !- [J]
Output:Meter:Cumulative,ElectricitySurplusSold:Facility,hourly; !- [J]
Output:Meter,ElectricitySurplusSold:Plant,hourly; !- [J]
Output:Meter:Cumulative,ElectricitySurplusSold:Plant,hourly; !- [J]
Output:Meter,Cogeneration:ElectricitySurplusSold,hourly; !- [J]
Output:Meter:Cumulative,Cogeneration:ElectricitySurplusSold,hourly; !- [J]
Output:Meter,General:Cogeneration:ElectricitySurplusSold,hourly; !- [J]
Output:Meter:Cumulative,General:Cogeneration:ElectricitySurplusSold,hourly; !- [J]
Output:Meter,ElectricityNet:Facility,hourly; !- [J]
Output:Meter:Cumulative,ElectricityNet:Facility,hourly; !- [J]
Output:Meter,ElectricityNet:Plant,hourly; !- [J]
Output:Meter:Cumulative,ElectricityNet:Plant,hourly; !- [J]
Output:Meter,Cogeneration:ElectricityNet,hourly; !- [J]
Output:Meter:Cumulative,Cogeneration:ElectricityNet,hourly; !- [J]
Output:Meter,General:Cogeneration:ElectricityNet,hourly; !- [J]
Output:Meter:Cumulative,General:Cogeneration:ElectricityNet,hourly; !- [J]
Output:Meter,Electricity:Plant,hourly; !- [J]
Output:Meter:Cumulative,Electricity:Plant,hourly; !- [J]
Output:Meter,Pumps:Electricity,hourly; !- [J]
Output:Meter:Cumulative,Pumps:Electricity,hourly; !- [J]
Output:Meter,General:Pumps:Electricity,hourly; !- [J]
Output:Meter:Cumulative,General:Pumps:Electricity,hourly; !- [J]
Output:Meter,Water:Facility,hourly; !- [m3]
Output:Meter:Cumulative,Water:Facility,hourly; !- [m3]
Output:Meter,Water:Plant,hourly; !- [m3]
Output:Meter:Cumulative,Water:Plant,hourly; !- [m3]
Output:Meter,WaterSystems:Water,hourly; !- [m3]
Output:Meter:Cumulative,WaterSystems:Water,hourly; !- [m3]
Output:Meter,General:WaterSystems:Water,hourly; !- [m3]
Output:Meter:Cumulative,General:WaterSystems:Water,hourly; !- [m3]
Output:Meter,MainsWater:Facility,hourly; !- [m3]
Output:Meter:Cumulative,MainsWater:Facility,hourly; !- [m3]
Output:Meter,MainsWater:Plant,hourly; !- [m3]
Output:Meter:Cumulative,MainsWater:Plant,hourly; !- [m3]
Output:Meter,WaterSystems:MainsWater,hourly; !- [m3]
Output:Meter:Cumulative,WaterSystems:MainsWater,hourly; !- [m3]
Output:Meter,General:WaterSystems:MainsWater,hourly; !- [m3]
Output:Meter:Cumulative,General:WaterSystems:MainsWater,hourly; !- [m3]
Output:Meter,EnergyTransfer:Plant,hourly; !- [J]
Output:Meter:Cumulative,EnergyTransfer:Plant,hourly; !- [J]
Output:Meter,WaterSystems:EnergyTransfer,hourly; !- [J]
Output:Meter:Cumulative,WaterSystems:EnergyTransfer,hourly; !- [J]
Output:Meter,General:WaterSystems:EnergyTransfer,hourly; !- [J]
Output:Meter:Cumulative,General:WaterSystems:EnergyTransfer,hourly; !- [J]
Output:Meter,PlantLoopHeatingDemand:Facility,hourly; !- [J]
Output:Meter:Cumulative,PlantLoopHeatingDemand:Facility,hourly; !- [J]
Output:Meter,PlantLoopHeatingDemand:Plant,hourly; !- [J]
Output:Meter:Cumulative,PlantLoopHeatingDemand:Plant,hourly; !- [J]
Output:Meter,WaterSystems:PlantLoopHeatingDemand,hourly; !- [J]
Output:Meter:Cumulative,WaterSystems:PlantLoopHeatingDemand,hourly; !- [J]
Output:Meter,General:WaterSystems:PlantLoopHeatingDemand,hourly; !- [J]
Output:Meter:Cumulative,General:WaterSystems:PlantLoopHeatingDemand,hourly; !- [J]
Output:Meter,NaturalGas:Facility,hourly; !- [J]
Output:Meter:Cumulative,NaturalGas:Facility,hourly; !- [J]
Output:Meter,NaturalGas:Plant,hourly; !- [J]
Output:Meter:Cumulative,NaturalGas:Plant,hourly; !- [J]
Output:Meter,WaterSystems:NaturalGas,hourly; !- [J]
Output:Meter:Cumulative,WaterSystems:NaturalGas,hourly; !- [J]
Output:Meter,General:WaterSystems:NaturalGas,hourly; !- [J]
Output:Meter:Cumulative,General:WaterSystems:NaturalGas,hourly; !- [J]
Output:Meter,Carbon Equivalent:Facility,hourly; !- [kg]
Output:Meter:Cumulative,Carbon Equivalent:Facility,hourly; !- [kg]
Output:Meter,CarbonEquivalentEmissions:Carbon Equivalent,hourly; !- [kg]
Output:Meter:Cumulative,CarbonEquivalentEmissions:Carbon Equivalent,hourly; !- [kg]
