Program Version,EnergyPlus, Version 9.4.0-998c4b761e, YMD=2022.04.20 08:19
! <Version>, Version ID
 Version, 9.4
! <Timesteps per Hour>, #TimeSteps, Minutes per TimeStep {minutes}
 Timesteps per Hour,  4, 15
! <System Convergence Limits>, Minimum System TimeStep {minutes}, Max HVAC Iterations, Minimum Plant Iterations, Maximum Plant Iterations
 System Convergence Limits, 1, 20, 2, 8
! <Simulation Control>, Do Zone Sizing, Do System Sizing, Do Plant Sizing, Do Design Days, Do Weather Simulation, Do HVAC Sizing Simulation
 Simulation Control, Yes, No, Yes, Yes, No, Yes
! <Performance Precision Tradeoffs>, Use Coil Direct Simulation, Zone Radiant Exchange Algorithm, Override Mode, Number of Timestep In Hour, Force Euler Method, Minimum Number of Warmup Days, Force Suppress All Begin Environment Resets, Minimum System Timestep, MaxZoneTempDiff, MaxAllowedDelTemp
 Performance Precision Tradeoffs, No, ScriptF, Normal, 4, No, 1, No, 1.0, 0.300, 2.0000E-003
! <Output Reporting Tolerances>, Tolerance for Time Heating Setpoint Not Met, Tolerance for Zone Cooling Setpoint Not Met Time
 Output Reporting Tolerances, 0.200, 0.200, 
! <Site:GroundTemperature:BuildingSurface>,Jan{C},Feb{C},Mar{C},Apr{C},May{C},Jun{C},Jul{C},Aug{C},Sep{C},Oct{C},Nov{C},Dec{C}
 Site:GroundTemperature:BuildingSurface,  18.00,  18.00,  18.00,  18.00,  18.00,  18.00,  18.00,  18.00,  18.00,  18.00,  18.00,  18.00
! <Site:GroundTemperature:FCfactorMethod>,Jan{C},Feb{C},Mar{C},Apr{C},May{C},Jun{C},Jul{C},Aug{C},Sep{C},Oct{C},Nov{C},Dec{C}
 Site:GroundTemperature:FCfactorMethod,  20.90,  15.40,  11.90,  14.80,  12.70,  15.40,  23.30,  26.30,  31.20,  30.40,  29.80,  27.80
! <Site:GroundTemperature:Shallow>,Jan{C},Feb{C},Mar{C},Apr{C},May{C},Jun{C},Jul{C},Aug{C},Sep{C},Oct{C},Nov{C},Dec{C}
 Site:GroundTemperature:Shallow,  13.00,  13.00,  13.00,  13.00,  13.00,  13.00,  13.00,  13.00,  13.00,  13.00,  13.00,  13.00
! <Site:GroundTemperature:Deep>,Jan{C},Feb{C},Mar{C},Apr{C},May{C},Jun{C},Jul{C},Aug{C},Sep{C},Oct{C},Nov{C},Dec{C}
 Site:GroundTemperature:Deep,  16.00,  16.00,  16.00,  16.00,  16.00,  16.00,  16.00,  16.00,  16.00,  16.00,  16.00,  16.00
! <Site:GroundReflectance>,Jan{dimensionless},Feb{dimensionless},Mar{dimensionless},Apr{dimensionless},May{dimensionless},Jun{dimensionless},Jul{dimensionless},Aug{dimensionless},Sep{dimensionless},Oct{dimensionless},Nov{dimensionless},Dec{dimensionless}
 Site:GroundReflectance,  0.20,  0.20,  0.20,  0.20,  0.20,  0.20,  0.20,  0.20,  0.20,  0.20,  0.20,  0.20
! <Site:GroundReflectance:SnowModifier>, Normal, Daylighting {dimensionless}
 Site:GroundReflectance:SnowModifier,   1.000,   1.000
! <Site:GroundReflectance:Snow>,Jan{dimensionless},Feb{dimensionless},Mar{dimensionless},Apr{dimensionless},May{dimensionless},Jun{dimensionless},Jul{dimensionless},Aug{dimensionless},Sep{dimensionless},Oct{dimensionless},Nov{dimensionless},Dec{dimensionless}
 Site:GroundReflectance:Snow,  0.20,  0.20,  0.20,  0.20,  0.20,  0.20,  0.20,  0.20,  0.20,  0.20,  0.20,  0.20
! <Site:GroundReflectance:Snow:Daylighting>,Jan{dimensionless},Feb{dimensionless},Mar{dimensionless},Apr{dimensionless},May{dimensionless},Jun{dimensionless},Jul{dimensionless},Aug{dimensionless},Sep{dimensionless},Oct{dimensionless},Nov{dimensionless},Dec{dimensionless}
 Site:GroundReflectance:Snow:Daylighting,  0.20,  0.20,  0.20,  0.20,  0.20,  0.20,  0.20,  0.20,  0.20,  0.20,  0.20,  0.20
! <Environment:Weather Station>,Wind Sensor Height Above Ground {m},Wind Speed Profile Exponent {},Wind Speed Profile Boundary Layer Thickness {m},Air Temperature Sensor Height Above Ground {m},Wind Speed Modifier Coefficient-Internal,Temperature Modifier Coefficient-Internal
Environment:Weather Station,10.000,0.140,270.000,1.500,1.586,9.750E-003
! <Site:Location>, Location Name, Latitude {N+/S- Deg}, Longitude {E+/W- Deg},  Time Zone Number {GMT+/-}, Elevation {m},  Standard Pressure at Elevation {Pa}, Standard RhoAir at Elevation
Site:Location,Tucson International Ap AZ USA TMY3 WMO#=722740,32.13,-110.95,-7.00,777.00,92332,1.0974
! <Site Water Mains Temperature Information>,Calculation Method{},Water Mains Temperature Schedule Name{},Annual Average Outdoor Air Temperature{C},Maximum Difference In Monthly Average Outdoor Air Temperatures{deltaC},Fixed Default Water Mains Temperature{C}
Site Water Mains Temperature Information,Correlation,NA,20.39,20.10,NA
! <Building Information>, Building Name,North Axis {deg},Terrain,  Loads Convergence Tolerance Value,Temperature Convergence Tolerance Value,  Solar Distribution,Maximum Number of Warmup Days,Minimum Number of Warmup Days
 Building Information,90.1-2010|MediumOffice,0.000,City,4.00000E-002,0.40000,FullExterior,25,1
! <Inside Convection Algorithm>, Algorithm {Simple | TARP | CeilingDiffuser | AdaptiveConvectionAlgorithm}
Inside Convection Algorithm,TARP
! <Outside Convection Algorithm>, Algorithm {SimpleCombined | TARP | MoWitt | DOE-2 | AdaptiveConvectionAlgorithm}
Outside Convection Algorithm,DOE-2
! <Sky Radiance Distribution>, Value {Anisotropic}
Sky Radiance Distribution,Anisotropic
! <Zone Air Solution Algorithm>, Value {ThirdOrderBackwardDifference | AnalyticalSolution | EulerMethod}
 Zone Air Solution Algorithm, ThirdOrderBackwardDifference
! <Zone Air Carbon Dioxide Balance Simulation>, Simulation {Yes/No}, Carbon Dioxide Concentration
 Zone Air Carbon Dioxide Balance Simulation, No,N/A
! <Zone Air Generic Contaminant Balance Simulation>, Simulation {Yes/No}, Generic Contaminant Concentration
 Zone Air Generic Contaminant Balance Simulation, No,N/A
! <Zone Air Mass Flow Balance Simulation>, Enforce Mass Balance, Adjust Zone Mixing, Adjust Zone Infiltration {AddInfiltration | AdjustInfiltration | None}, Infiltration Zones {MixingSourceZonesOnly | AllZones}
 Zone Air Mass Flow Balance Simulation, No,N/A,N/A,N/A
! <HVACSystemRootFindingAlgorithm>, Value {RegulaFalsi | Bisection | BisectionThenRegulaFalsi | RegulaFalsiThenBisection}
 HVACSystemRootFindingAlgorithm, RegulaFalsi
! <Environment:Site Atmospheric Variation>,Wind Speed Profile Exponent {},Wind Speed Profile Boundary Layer Thickness {m},Air Temperature Gradient Coefficient {K/m}
Environment:Site Atmospheric Variation,0.330,460.000,6.500000E-003
! <Surface Geometry>,Starting Corner,Vertex Input Direction,Coordinate System,Daylight Reference Point Coordinate System,Rectangular (Simple) Surface Coordinate System
 Surface Geometry,UpperLeftCorner,Counterclockwise,RelativeCoordinateSystem,RelativeCoordinateSystem,RelativeToZoneOrigin
! <Surface Heat Transfer Algorithm>, Value {CTF - ConductionTransferFunction | EMPD - MoisturePenetrationDepthConductionTransferFunction | CondFD - ConductionFiniteDifference | HAMT - CombinedHeatAndMoistureFiniteElement} - Description,Inside Surface Max Temperature Limit{C}, Surface Convection Coefficient Lower Limit {W/m2-K}, Surface Convection Coefficient Upper Limit {W/m2-K}
Surface Heat Transfer Algorithm, CTF - ConductionTransferFunction,200,0.10,1000.0
! <Shading Summary>, Number of Fixed Detached Shades, Number of Building Detached Shades, Number of Attached Shades
 Shading Summary,0,0,0
! <Zone Summary>, Number of Zones, Number of Zone Surfaces, Number of SubSurfaces
 Zone Summary,15,102,12
! <Zone Information>,Zone Name,North Axis {deg},Origin X-Coordinate {m},Origin Y-Coordinate {m},Origin Z-Coordinate {m},Centroid X-Coordinate {m},Centroid Y-Coordinate {m},Centroid Z-Coordinate {m},Type,Zone Multiplier,Zone List Multiplier,Minimum X {m},Maximum X {m},Minimum Y {m},Maximum Y {m},Minimum Z {m},Maximum Z {m},Ceiling Height {m},Volume {m3},Zone Inside Convection Algorithm {Simple-Detailed-CeilingDiffuser-TrombeWall},Zone Outside Convection Algorithm {Simple-Detailed-Tarp-MoWitt-DOE-2-BLAST}, Floor Area {m2},Exterior Gross Wall Area {m2},Exterior Net Wall Area {m2},Exterior Window Area {m2}, Number of Surfaces, Number of SubSurfaces, Number of Shading SubSurfaces,  Part of Total Building Area
 Zone Information, ZONE CORE SPACE - STORY GROUND,0.0,-37.16,-23.25,0.00,-2.42E-014,1.91E-014,1.98,1,1,1,-37.16,37.16,-23.25,23.25,0.00,3.96,3.96,13696.58,TARP,DOE-2,3456.64,0.00,0.00,0.00,6,0,0,Yes
 Zone Information, ZONE CORE SPACE - STORY MID,0.0,-37.16,-23.25,37.64,-2.41E-014,1.93E-014,39.62,1,18,1,-37.16,37.16,-23.25,23.25,37.64,41.61,3.96,13696.58,TARP,DOE-2,3456.64,0.00,0.00,0.00,6,0,0,Yes
 Zone Information, ZONE CORE SPACE - STORY TOP,0.0,-37.16,-23.25,75.29,-2.41E-014,1.91E-014,77.27,1,1,1,-37.16,37.16,-23.25,23.25,75.29,79.25,3.96,13696.58,TARP,DOE-2,3456.64,0.00,0.00,0.00,6,0,0,Yes
 Zone Information, ZONE EAST PERIMETER SPACE - STORY GROUND,0.0,41.74,27.82,0.00,39.57,-1.99E-014,1.98,1,1,1,37.16,41.74,-27.82,27.82,0.00,3.96,3.96,925.31,TARP,DOE-2,233.52,220.50,66.15,154.35,6,1,0,Yes
 Zone Information, ZONE EAST PERIMETER SPACE - STORY MID,0.0,41.74,27.82,37.64,39.57,-1.89E-014,39.62,1,18,1,37.16,41.74,-27.82,27.82,37.64,41.61,3.96,925.31,TARP,DOE-2,233.52,220.50,66.15,154.35,6,1,0,Yes
 Zone Information, ZONE EAST PERIMETER SPACE - STORY TOP,0.0,41.74,27.82,75.29,39.57,-2.26E-014,77.27,1,1,1,37.16,41.74,-27.82,27.82,75.29,79.25,3.96,925.31,TARP,DOE-2,233.52,220.50,66.15,154.35,6,1,0,Yes
 Zone Information, ZONE NORTH PERIMETER SPACE - STORY GROUND,0.0,-41.74,27.82,0.00,-1.88E-014,25.62,1.98,1,1,1,-41.74,41.74,23.25,27.82,0.00,3.96,3.96,1429.38,TARP,DOE-2,360.73,330.75,99.23,231.53,6,1,0,Yes
 Zone Information, ZONE NORTH PERIMETER SPACE - STORY MID,0.0,-41.74,27.82,37.64,-1.45E-014,25.62,39.62,1,18,1,-41.74,41.74,23.25,27.82,37.64,41.61,3.96,1429.38,TARP,DOE-2,360.73,330.75,99.23,231.53,6,1,0,Yes
 Zone Information, ZONE NORTH PERIMETER SPACE - STORY TOP,0.0,-41.74,27.82,75.29,-1.83E-014,25.62,77.27,1,1,1,-41.74,41.74,23.25,27.82,75.29,79.25,3.96,1429.38,TARP,DOE-2,360.73,330.75,99.23,231.53,6,1,0,Yes
 Zone Information, ZONE SOUTH PERIMETER SPACE - STORY GROUND,0.0,41.74,-27.82,0.00,1.88E-014,-25.62,1.98,1,1,1,-41.74,41.74,-27.82,-23.25,0.00,3.96,3.96,1429.38,TARP,DOE-2,360.73,330.75,99.23,231.53,6,1,0,Yes
 Zone Information, ZONE SOUTH PERIMETER SPACE - STORY MID,0.0,41.74,-27.82,37.64,1.45E-014,-25.62,39.62,1,18,1,-41.74,41.74,-27.82,-23.25,37.64,41.61,3.96,1429.38,TARP,DOE-2,360.73,330.75,99.23,231.53,6,1,0,Yes
 Zone Information, ZONE SOUTH PERIMETER SPACE - STORY TOP,0.0,41.74,-27.82,75.29,1.83E-014,-25.62,77.27,1,1,1,-41.74,41.74,-27.82,-23.25,75.29,79.25,3.96,1429.38,TARP,DOE-2,360.73,330.75,99.23,231.53,6,1,0,Yes
 Zone Information, ZONE WEST PERIMETER SPACE - STORY GROUND,0.0,-41.74,-27.82,0.00,-39.57,1.99E-014,1.98,1,1,1,-41.74,-37.16,-27.82,27.82,0.00,3.96,3.96,925.31,TARP,DOE-2,233.52,220.50,66.15,154.35,6,1,0,Yes
 Zone Information, ZONE WEST PERIMETER SPACE - STORY MID,0.0,-41.74,-27.82,37.64,-39.57,1.89E-014,39.62,1,18,1,-41.74,-37.16,-27.82,27.82,37.64,41.61,3.96,925.31,TARP,DOE-2,233.52,220.50,66.15,154.35,6,1,0,Yes
 Zone Information, ZONE WEST PERIMETER SPACE - STORY TOP,0.0,-41.74,-27.82,75.29,-39.57,2.26E-014,77.27,1,1,1,-41.74,-37.16,-27.82,27.82,75.29,79.25,3.96,925.31,TARP,DOE-2,233.52,220.50,66.15,154.35,6,1,0,Yes
! <Zone Internal Gains Nominal>,Zone Name, Floor Area {m2},# Occupants,Area per Occupant {m2/person},Occupant per Area {person/m2},Interior Lighting {W/m2},Electric Load {W/m2},Gas Load {W/m2},Other Load {W/m2},Hot Water Eq {W/m2},Steam Equipment {W/m2},Sum Loads per Area {W/m2},Outdoor Controlled Baseboard Heat
 Zone Internal Gains Nominal, ZONE CORE SPACE - STORY GROUND,3456.64,186.0,18.581,5.382E-002,9.688,156.173,0.000,0.000,0.000,0.000,165.860,No
 Zone Internal Gains Nominal, ZONE CORE SPACE - STORY MID,3456.64,186.0,18.581,5.382E-002,9.688,8.073,0.000,0.000,0.000,0.000,17.760,No
 Zone Internal Gains Nominal, ZONE CORE SPACE - STORY TOP,3456.64,186.0,18.581,5.382E-002,9.688,8.073,0.000,0.000,0.000,0.000,17.760,No
 Zone Internal Gains Nominal, ZONE EAST PERIMETER SPACE - STORY GROUND,233.52,12.6,18.581,5.382E-002,9.688,8.073,0.000,0.000,0.000,0.000,17.760,No
 Zone Internal Gains Nominal, ZONE EAST PERIMETER SPACE - STORY MID,233.52,12.6,18.581,5.382E-002,9.688,8.073,0.000,0.000,0.000,0.000,17.760,No
 Zone Internal Gains Nominal, ZONE EAST PERIMETER SPACE - STORY TOP,233.52,12.6,18.581,5.382E-002,9.688,8.073,0.000,0.000,0.000,0.000,17.760,No
 Zone Internal Gains Nominal, ZONE NORTH PERIMETER SPACE - STORY GROUND,360.73,19.4,18.581,5.382E-002,9.688,8.073,0.000,0.000,0.000,0.000,17.760,No
 Zone Internal Gains Nominal, ZONE NORTH PERIMETER SPACE - STORY MID,360.73,19.4,18.581,5.382E-002,9.688,8.073,0.000,0.000,0.000,0.000,17.760,No
 Zone Internal Gains Nominal, ZONE NORTH PERIMETER SPACE - STORY TOP,360.73,19.4,18.581,5.382E-002,9.688,8.073,0.000,0.000,0.000,0.000,17.760,No
 Zone Internal Gains Nominal, ZONE SOUTH PERIMETER SPACE - STORY GROUND,360.73,19.4,18.581,5.382E-002,9.688,8.073,0.000,0.000,0.000,0.000,17.760,No
 Zone Internal Gains Nominal, ZONE SOUTH PERIMETER SPACE - STORY MID,360.73,19.4,18.581,5.382E-002,9.688,8.073,0.000,0.000,0.000,0.000,17.760,No
 Zone Internal Gains Nominal, ZONE SOUTH PERIMETER SPACE - STORY TOP,360.73,19.4,18.581,5.382E-002,9.688,8.073,0.000,0.000,0.000,0.000,17.760,No
 Zone Internal Gains Nominal, ZONE WEST PERIMETER SPACE - STORY GROUND,233.52,12.6,18.581,5.382E-002,9.688,8.073,0.000,0.000,0.000,0.000,17.760,No
 Zone Internal Gains Nominal, ZONE WEST PERIMETER SPACE - STORY MID,233.52,12.6,18.581,5.382E-002,9.688,8.073,0.000,0.000,0.000,0.000,17.760,No
 Zone Internal Gains Nominal, ZONE WEST PERIMETER SPACE - STORY TOP,233.52,12.6,18.581,5.382E-002,9.688,8.073,0.000,0.000,0.000,0.000,17.760,No
! <People Internal Gains Nominal>,Name,Schedule Name,Zone Name,Zone Floor Area {m2},# Zone Occupants,Number of People {},People/Floor Area {person/m2},Floor Area per person {m2/person},Fraction Radiant,Fraction Convected,Sensible Fraction Calculation,Activity level,ASHRAE 55 Warnings,Carbon Dioxide Generation Rate,Nominal Minimum Number of People,Nominal Maximum Number of People
 People Internal Gains Nominal, ZONE CORE SPACE - STORY GROUND OFFICE WHOLEBUILDING - MD OFFICE PEOPLE,OFFICEMEDIUM BLDG_OCC_SCH,ZONE CORE SPACE - STORY GROUND,3456.64,186.0,186.0,5.382E-002,18.581,0.300,0.700,AutoCalculate,OFFICEMEDIUM ACTIVITY_SCH,No,3.8200E-008,0,186
 People Internal Gains Nominal, ZONE CORE SPACE - STORY MID OFFICE WHOLEBUILDING - MD OFFICE PEOPLE,OFFICEMEDIUM BLDG_OCC_SCH,ZONE CORE SPACE - STORY MID,3456.64,186.0,186.0,5.382E-002,18.581,0.300,0.700,AutoCalculate,OFFICEMEDIUM ACTIVITY_SCH,No,3.8200E-008,0,186
 People Internal Gains Nominal, ZONE CORE SPACE - STORY TOP OFFICE WHOLEBUILDING - MD OFFICE PEOPLE,OFFICEMEDIUM BLDG_OCC_SCH,ZONE CORE SPACE - STORY TOP,3456.64,186.0,186.0,5.382E-002,18.581,0.300,0.700,AutoCalculate,OFFICEMEDIUM ACTIVITY_SCH,No,3.8200E-008,0,186
 People Internal Gains Nominal, ZONE EAST PERIMETER SPACE - STORY GROUND OFFICE WHOLEBUILDING - MD OFFICE PEOPLE,OFFICEMEDIUM BLDG_OCC_SCH,ZONE EAST PERIMETER SPACE - STORY GROUND,233.52,12.6,12.6,5.382E-002,18.581,0.300,0.700,AutoCalculate,OFFICEMEDIUM ACTIVITY_SCH,No,3.8200E-008,0,13
 People Internal Gains Nominal, ZONE EAST PERIMETER SPACE - STORY MID OFFICE WHOLEBUILDING - MD OFFICE PEOPLE,OFFICEMEDIUM BLDG_OCC_SCH,ZONE EAST PERIMETER SPACE - STORY MID,233.52,12.6,12.6,5.382E-002,18.581,0.300,0.700,AutoCalculate,OFFICEMEDIUM ACTIVITY_SCH,No,3.8200E-008,0,13
 People Internal Gains Nominal, ZONE EAST PERIMETER SPACE - STORY TOP OFFICE WHOLEBUILDING - MD OFFICE PEOPLE,OFFICEMEDIUM BLDG_OCC_SCH,ZONE EAST PERIMETER SPACE - STORY TOP,233.52,12.6,12.6,5.382E-002,18.581,0.300,0.700,AutoCalculate,OFFICEMEDIUM ACTIVITY_SCH,No,3.8200E-008,0,13
 People Internal Gains Nominal, ZONE NORTH PERIMETER SPACE - STORY GROUND OFFICE WHOLEBUILDING - MD OFFICE PEOPLE,OFFICEMEDIUM BLDG_OCC_SCH,ZONE NORTH PERIMETER SPACE - STORY GROUND,360.73,19.4,19.4,5.382E-002,18.581,0.300,0.700,AutoCalculate,OFFICEMEDIUM ACTIVITY_SCH,No,3.8200E-008,0,19
 People Internal Gains Nominal, ZONE NORTH PERIMETER SPACE - STORY MID OFFICE WHOLEBUILDING - MD OFFICE PEOPLE,OFFICEMEDIUM BLDG_OCC_SCH,ZONE NORTH PERIMETER SPACE - STORY MID,360.73,19.4,19.4,5.382E-002,18.581,0.300,0.700,AutoCalculate,OFFICEMEDIUM ACTIVITY_SCH,No,3.8200E-008,0,19
 People Internal Gains Nominal, ZONE NORTH PERIMETER SPACE - STORY TOP OFFICE WHOLEBUILDING - MD OFFICE PEOPLE,OFFICEMEDIUM BLDG_OCC_SCH,ZONE NORTH PERIMETER SPACE - STORY TOP,360.73,19.4,19.4,5.382E-002,18.581,0.300,0.700,AutoCalculate,OFFICEMEDIUM ACTIVITY_SCH,No,3.8200E-008,0,19
 People Internal Gains Nominal, ZONE SOUTH PERIMETER SPACE - STORY GROUND OFFICE WHOLEBUILDING - MD OFFICE PEOPLE,OFFICEMEDIUM BLDG_OCC_SCH,ZONE SOUTH PERIMETER SPACE - STORY GROUND,360.73,19.4,19.4,5.382E-002,18.581,0.300,0.700,AutoCalculate,OFFICEMEDIUM ACTIVITY_SCH,No,3.8200E-008,0,19
 People Internal Gains Nominal, ZONE SOUTH PERIMETER SPACE - STORY MID OFFICE WHOLEBUILDING - MD OFFICE PEOPLE,OFFICEMEDIUM BLDG_OCC_SCH,ZONE SOUTH PERIMETER SPACE - STORY MID,360.73,19.4,19.4,5.382E-002,18.581,0.300,0.700,AutoCalculate,OFFICEMEDIUM ACTIVITY_SCH,No,3.8200E-008,0,19
 People Internal Gains Nominal, ZONE SOUTH PERIMETER SPACE - STORY TOP OFFICE WHOLEBUILDING - MD OFFICE PEOPLE,OFFICEMEDIUM BLDG_OCC_SCH,ZONE SOUTH PERIMETER SPACE - STORY TOP,360.73,19.4,19.4,5.382E-002,18.581,0.300,0.700,AutoCalculate,OFFICEMEDIUM ACTIVITY_SCH,No,3.8200E-008,0,19
 People Internal Gains Nominal, ZONE WEST PERIMETER SPACE - STORY GROUND OFFICE WHOLEBUILDING - MD OFFICE PEOPLE,OFFICEMEDIUM BLDG_OCC_SCH,ZONE WEST PERIMETER SPACE - STORY GROUND,233.52,12.6,12.6,5.382E-002,18.581,0.300,0.700,AutoCalculate,OFFICEMEDIUM ACTIVITY_SCH,No,3.8200E-008,0,13
 People Internal Gains Nominal, ZONE WEST PERIMETER SPACE - STORY MID OFFICE WHOLEBUILDING - MD OFFICE PEOPLE,OFFICEMEDIUM BLDG_OCC_SCH,ZONE WEST PERIMETER SPACE - STORY MID,233.52,12.6,12.6,5.382E-002,18.581,0.300,0.700,AutoCalculate,OFFICEMEDIUM ACTIVITY_SCH,No,3.8200E-008,0,13
 People Internal Gains Nominal, ZONE WEST PERIMETER SPACE - STORY TOP OFFICE WHOLEBUILDING - MD OFFICE PEOPLE,OFFICEMEDIUM BLDG_OCC_SCH,ZONE WEST PERIMETER SPACE - STORY TOP,233.52,12.6,12.6,5.382E-002,18.581,0.300,0.700,AutoCalculate,OFFICEMEDIUM ACTIVITY_SCH,No,3.8200E-008,0,13
! <Lights Internal Gains Nominal>,Name,Schedule Name,Zone Name,Zone Floor Area {m2},# Zone Occupants,Lighting Level {W},Lights/Floor Area {W/m2},Lights per person {W/person},Fraction Return Air,Fraction Radiant,Fraction Short Wave,Fraction Convected,Fraction Replaceable,End-Use Category,Nominal Minimum Lighting Level {W},Nominal Maximum Lighting Level {W}
 Lights Internal Gains Nominal, ZONE CORE SPACE - STORY GROUND OFFICE WHOLEBUILDING - MD OFFICE LIGHTS,OFFICEMEDIUM BLDG_LIGHT_SCH_2010,ZONE CORE SPACE - STORY GROUND,3456.64,186.0,33486.242,9.688,180.000,0.000,0.700,0.200,0.100,1.000,General,0.000,33486.242
 Lights Internal Gains Nominal, ZONE CORE SPACE - STORY MID OFFICE WHOLEBUILDING - MD OFFICE LIGHTS,OFFICEMEDIUM BLDG_LIGHT_SCH_2010,ZONE CORE SPACE - STORY MID,3456.64,186.0,33486.242,9.688,180.000,0.000,0.700,0.200,0.100,1.000,General,0.000,33486.242
 Lights Internal Gains Nominal, ZONE CORE SPACE - STORY TOP OFFICE WHOLEBUILDING - MD OFFICE LIGHTS,OFFICEMEDIUM BLDG_LIGHT_SCH_2010,ZONE CORE SPACE - STORY TOP,3456.64,186.0,33486.242,9.688,180.000,0.000,0.700,0.200,0.100,1.000,General,0.000,33486.242
 Lights Internal Gains Nominal, ZONE EAST PERIMETER SPACE - STORY GROUND OFFICE WHOLEBUILDING - MD OFFICE LIGHTS,OFFICEMEDIUM BLDG_LIGHT_SCH_2010,ZONE EAST PERIMETER SPACE - STORY GROUND,233.52,12.6,2262.252,9.688,180.000,0.000,0.700,0.200,0.100,1.000,General,0.000,2262.252
 Lights Internal Gains Nominal, ZONE EAST PERIMETER SPACE - STORY MID OFFICE WHOLEBUILDING - MD OFFICE LIGHTS,OFFICEMEDIUM BLDG_LIGHT_SCH_2010,ZONE EAST PERIMETER SPACE - STORY MID,233.52,12.6,2262.252,9.688,180.000,0.000,0.700,0.200,0.100,1.000,General,0.000,2262.252
 Lights Internal Gains Nominal, ZONE EAST PERIMETER SPACE - STORY TOP OFFICE WHOLEBUILDING - MD OFFICE LIGHTS,OFFICEMEDIUM BLDG_LIGHT_SCH_2010,ZONE EAST PERIMETER SPACE - STORY TOP,233.52,12.6,2262.252,9.688,180.000,0.000,0.700,0.200,0.100,1.000,General,0.000,2262.252
 Lights Internal Gains Nominal, ZONE NORTH PERIMETER SPACE - STORY GROUND OFFICE WHOLEBUILDING - MD OFFICE LIGHTS,OFFICEMEDIUM BLDG_LIGHT_SCH_2010,ZONE NORTH PERIMETER SPACE - STORY GROUND,360.73,19.4,3494.627,9.688,180.000,0.000,0.700,0.200,0.100,1.000,General,0.000,3494.627
 Lights Internal Gains Nominal, ZONE NORTH PERIMETER SPACE - STORY MID OFFICE WHOLEBUILDING - MD OFFICE LIGHTS,OFFICEMEDIUM BLDG_LIGHT_SCH_2010,ZONE NORTH PERIMETER SPACE - STORY MID,360.73,19.4,3494.627,9.688,180.000,0.000,0.700,0.200,0.100,1.000,General,0.000,3494.627
 Lights Internal Gains Nominal, ZONE NORTH PERIMETER SPACE - STORY TOP OFFICE WHOLEBUILDING - MD OFFICE LIGHTS,OFFICEMEDIUM BLDG_LIGHT_SCH_2010,ZONE NORTH PERIMETER SPACE - STORY TOP,360.73,19.4,3494.627,9.688,180.000,0.000,0.700,0.200,0.100,1.000,General,0.000,3494.627
 Lights Internal Gains Nominal, ZONE SOUTH PERIMETER SPACE - STORY GROUND OFFICE WHOLEBUILDING - MD OFFICE LIGHTS,OFFICEMEDIUM BLDG_LIGHT_SCH_2010,ZONE SOUTH PERIMETER SPACE - STORY GROUND,360.73,19.4,3494.627,9.688,180.000,0.000,0.700,0.200,0.100,1.000,General,0.000,3494.627
 Lights Internal Gains Nominal, ZONE SOUTH PERIMETER SPACE - STORY MID OFFICE WHOLEBUILDING - MD OFFICE LIGHTS,OFFICEMEDIUM BLDG_LIGHT_SCH_2010,ZONE SOUTH PERIMETER SPACE - STORY MID,360.73,19.4,3494.627,9.688,180.000,0.000,0.700,0.200,0.100,1.000,General,0.000,3494.627
 Lights Internal Gains Nominal, ZONE SOUTH PERIMETER SPACE - STORY TOP OFFICE WHOLEBUILDING - MD OFFICE LIGHTS,OFFICEMEDIUM BLDG_LIGHT_SCH_2010,ZONE SOUTH PERIMETER SPACE - STORY TOP,360.73,19.4,3494.627,9.688,180.000,0.000,0.700,0.200,0.100,1.000,General,0.000,3494.627
 Lights Internal Gains Nominal, ZONE WEST PERIMETER SPACE - STORY GROUND OFFICE WHOLEBUILDING - MD OFFICE LIGHTS,OFFICEMEDIUM BLDG_LIGHT_SCH_2010,ZONE WEST PERIMETER SPACE - STORY GROUND,233.52,12.6,2262.252,9.688,180.000,0.000,0.700,0.200,0.100,1.000,General,0.000,2262.252
 Lights Internal Gains Nominal, ZONE WEST PERIMETER SPACE - STORY MID OFFICE WHOLEBUILDING - MD OFFICE LIGHTS,OFFICEMEDIUM BLDG_LIGHT_SCH_2010,ZONE WEST PERIMETER SPACE - STORY MID,233.52,12.6,2262.252,9.688,180.000,0.000,0.700,0.200,0.100,1.000,General,0.000,2262.252
 Lights Internal Gains Nominal, ZONE WEST PERIMETER SPACE - STORY TOP OFFICE WHOLEBUILDING - MD OFFICE LIGHTS,OFFICEMEDIUM BLDG_LIGHT_SCH_2010,ZONE WEST PERIMETER SPACE - STORY TOP,233.52,12.6,2262.252,9.688,180.000,0.000,0.700,0.200,0.100,1.000,General,0.000,2262.252
! <ElectricEquipment Internal Gains Nominal>,Name,Schedule Name,Zone Name,Zone Floor Area {m2},# Zone Occupants,Equipment Level {W},Equipment/Floor Area {W/m2},Equipment per person {W/person},Fraction Latent,Fraction Radiant,Fraction Lost,Fraction Convected,End-Use SubCategory,Nominal Minimum Equipment Level {W},Nominal Maximum Equipment Level {W}
 ElectricEquipment Internal Gains Nominal, 25 ELEVATOR FANS,ELEVATOR SCHEDULE 3,ZONE CORE SPACE - STORY GROUND,3456.64,186.0,1868.130,0.540,10.042,0.000,0.500,0.000,0.500,Elevators,0.000,1868.130
 ElectricEquipment Internal Gains Nominal, 25 ELEVATOR LIFT MOTORS,ELEVATOR SCHEDULE 1,ZONE CORE SPACE - STORY GROUND,3456.64,186.0,509250.000,147.325,2737.393,0.000,0.000,1.000,0.000,Elevators,0.000,509250.000
 ElectricEquipment Internal Gains Nominal, 25 ELEVATOR LIGHTS,ELEVATOR SCHEDULE 2,ZONE CORE SPACE - STORY GROUND,3456.64,186.0,808.714,0.234,4.347,0.000,0.500,0.000,0.500,Elevators,0.000,808.714
 ElectricEquipment Internal Gains Nominal, ZONE CORE SPACE - STORY GROUND OFFICE WHOLEBUILDING - MD OFFICE ELEC EQUIP,OFFICEMEDIUM BLDG_EQUIP_SCH_2010,ZONE CORE SPACE - STORY GROUND,3456.64,186.0,27905.202,8.073,150.000,0.000,0.500,0.000,0.500,General,0.000,27905.202
 ElectricEquipment Internal Gains Nominal, ZONE CORE SPACE - STORY MID OFFICE WHOLEBUILDING - MD OFFICE ELEC EQUIP,OFFICEMEDIUM BLDG_EQUIP_SCH_2010,ZONE CORE SPACE - STORY MID,3456.64,186.0,27905.202,8.073,150.000,0.000,0.500,0.000,0.500,General,0.000,27905.202
 ElectricEquipment Internal Gains Nominal, ZONE CORE SPACE - STORY TOP OFFICE WHOLEBUILDING - MD OFFICE ELEC EQUIP,OFFICEMEDIUM BLDG_EQUIP_SCH_2010,ZONE CORE SPACE - STORY TOP,3456.64,186.0,27905.202,8.073,150.000,0.000,0.500,0.000,0.500,General,0.000,27905.202
 ElectricEquipment Internal Gains Nominal, ZONE EAST PERIMETER SPACE - STORY GROUND OFFICE WHOLEBUILDING - MD OFFICE ELEC EQUIP,OFFICEMEDIUM BLDG_EQUIP_SCH_2010,ZONE EAST PERIMETER SPACE - STORY GROUND,233.52,12.6,1885.210,8.073,150.000,0.000,0.500,0.000,0.500,General,0.000,1885.210
 ElectricEquipment Internal Gains Nominal, ZONE EAST PERIMETER SPACE - STORY MID OFFICE WHOLEBUILDING - MD OFFICE ELEC EQUIP,OFFICEMEDIUM BLDG_EQUIP_SCH_2010,ZONE EAST PERIMETER SPACE - STORY MID,233.52,12.6,1885.210,8.073,150.000,0.000,0.500,0.000,0.500,General,0.000,1885.210
 ElectricEquipment Internal Gains Nominal, ZONE EAST PERIMETER SPACE - STORY TOP OFFICE WHOLEBUILDING - MD OFFICE ELEC EQUIP,OFFICEMEDIUM BLDG_EQUIP_SCH_2010,ZONE EAST PERIMETER SPACE - STORY TOP,233.52,12.6,1885.210,8.073,150.000,0.000,0.500,0.000,0.500,General,0.000,1885.210
 ElectricEquipment Internal Gains Nominal, ZONE NORTH PERIMETER SPACE - STORY GROUND OFFICE WHOLEBUILDING - MD OFFICE ELEC EQUIP,OFFICEMEDIUM BLDG_EQUIP_SCH_2010,ZONE NORTH PERIMETER SPACE - STORY GROUND,360.73,19.4,2912.189,8.073,150.000,0.000,0.500,0.000,0.500,General,0.000,2912.189
 ElectricEquipment Internal Gains Nominal, ZONE NORTH PERIMETER SPACE - STORY MID OFFICE WHOLEBUILDING - MD OFFICE ELEC EQUIP,OFFICEMEDIUM BLDG_EQUIP_SCH_2010,ZONE NORTH PERIMETER SPACE - STORY MID,360.73,19.4,2912.189,8.073,150.000,0.000,0.500,0.000,0.500,General,0.000,2912.189
 ElectricEquipment Internal Gains Nominal, ZONE NORTH PERIMETER SPACE - STORY TOP OFFICE WHOLEBUILDING - MD OFFICE ELEC EQUIP,OFFICEMEDIUM BLDG_EQUIP_SCH_2010,ZONE NORTH PERIMETER SPACE - STORY TOP,360.73,19.4,2912.189,8.073,150.000,0.000,0.500,0.000,0.500,General,0.000,2912.189
 ElectricEquipment Internal Gains Nominal, ZONE SOUTH PERIMETER SPACE - STORY GROUND OFFICE WHOLEBUILDING - MD OFFICE ELEC EQUIP,OFFICEMEDIUM BLDG_EQUIP_SCH_2010,ZONE SOUTH PERIMETER SPACE - STORY GROUND,360.73,19.4,2912.189,8.073,150.000,0.000,0.500,0.000,0.500,General,0.000,2912.189
 ElectricEquipment Internal Gains Nominal, ZONE SOUTH PERIMETER SPACE - STORY MID OFFICE WHOLEBUILDING - MD OFFICE ELEC EQUIP,OFFICEMEDIUM BLDG_EQUIP_SCH_2010,ZONE SOUTH PERIMETER SPACE - STORY MID,360.73,19.4,2912.189,8.073,150.000,0.000,0.500,0.000,0.500,General,0.000,2912.189
 ElectricEquipment Internal Gains Nominal, ZONE SOUTH PERIMETER SPACE - STORY TOP OFFICE WHOLEBUILDING - MD OFFICE ELEC EQUIP,OFFICEMEDIUM BLDG_EQUIP_SCH_2010,ZONE SOUTH PERIMETER SPACE - STORY TOP,360.73,19.4,2912.189,8.073,150.000,0.000,0.500,0.000,0.500,General,0.000,2912.189
 ElectricEquipment Internal Gains Nominal, ZONE WEST PERIMETER SPACE - STORY GROUND OFFICE WHOLEBUILDING - MD OFFICE ELEC EQUIP,OFFICEMEDIUM BLDG_EQUIP_SCH_2010,ZONE WEST PERIMETER SPACE - STORY GROUND,233.52,12.6,1885.210,8.073,150.000,0.000,0.500,0.000,0.500,General,0.000,1885.210
 ElectricEquipment Internal Gains Nominal, ZONE WEST PERIMETER SPACE - STORY MID OFFICE WHOLEBUILDING - MD OFFICE ELEC EQUIP,OFFICEMEDIUM BLDG_EQUIP_SCH_2010,ZONE WEST PERIMETER SPACE - STORY MID,233.52,12.6,1885.210,8.073,150.000,0.000,0.500,0.000,0.500,General,0.000,1885.210
 ElectricEquipment Internal Gains Nominal, ZONE WEST PERIMETER SPACE - STORY TOP OFFICE WHOLEBUILDING - MD OFFICE ELEC EQUIP,OFFICEMEDIUM BLDG_EQUIP_SCH_2010,ZONE WEST PERIMETER SPACE - STORY TOP,233.52,12.6,1885.210,8.073,150.000,0.000,0.500,0.000,0.500,General,0.000,1885.210
! <Shadowing/Sun Position Calculations Annual Simulations>, Shading Calculation Method, Shading Calculation Update Frequency Method, Shading Calculation Update Frequency {days}, Maximum Figures in Shadow Overlap Calculations {}, Polygon Clipping Algorithm, Pixel Counting Resolution, Sky Diffuse Modeling Algorithm, Output External Shading Calculation Results, Disable Self-Shading Within Shading Zone Groups, Disable Self-Shading From Shading Zone Groups to Other Zones
Shadowing/Sun Position Calculations Annual Simulations,PolygonClipping,Periodic,20,15000,SutherlandHodgman,512,SimpleSkyDiffuseModeling,No,No,No
! <ZoneInfiltration Airflow Stats Nominal>,Name,Schedule Name,Zone Name, Zone Floor Area {m2}, # Zone Occupants,Design Volume Flow Rate {m3/s},Volume Flow Rate/Floor Area {m3/s-m2},Volume Flow Rate/Exterior Surface Area {m3/s-m2},ACH - Air Changes per Hour,Equation A - Constant Term Coefficient {},Equation B - Temperature Term Coefficient {1/C},Equation C - Velocity Term Coefficient {s/m}, Equation D - Velocity Squared Term Coefficient {s2/m2}
 ZoneInfiltration Airflow Stats Nominal, EAST PERIMETER SPACE - STORY GROUND INFILTRATION,ALWAYS ON DISCRETE,ZONE EAST PERIMETER SPACE - STORY GROUND,233.52,12.6,0.126,5.378E-004,5.696E-004,0.489,0.000,0.000,0.224,0.000
 ZoneInfiltration Airflow Stats Nominal, EAST PERIMETER SPACE - STORY MID INFILTRATION,ALWAYS ON DISCRETE,ZONE EAST PERIMETER SPACE - STORY MID,233.52,12.6,0.126,5.378E-004,5.696E-004,0.489,0.000,0.000,0.224,0.000
 ZoneInfiltration Airflow Stats Nominal, EAST PERIMETER SPACE - STORY TOP INFILTRATION,ALWAYS ON DISCRETE,ZONE EAST PERIMETER SPACE - STORY TOP,233.52,12.6,0.126,5.378E-004,2.766E-004,0.489,0.000,0.000,0.224,0.000
 ZoneInfiltration Airflow Stats Nominal, NORTH PERIMETER SPACE - STORY GROUND INFILTRATION,ALWAYS ON DISCRETE,ZONE NORTH PERIMETER SPACE - STORY GROUND,360.73,19.4,0.188,5.222E-004,5.696E-004,0.474,0.000,0.000,0.224,0.000
 ZoneInfiltration Airflow Stats Nominal, NORTH PERIMETER SPACE - STORY MID INFILTRATION,ALWAYS ON DISCRETE,ZONE NORTH PERIMETER SPACE - STORY MID,360.73,19.4,0.188,5.222E-004,5.696E-004,0.474,0.000,0.000,0.224,0.000
 ZoneInfiltration Airflow Stats Nominal, NORTH PERIMETER SPACE - STORY TOP INFILTRATION,ALWAYS ON DISCRETE,ZONE NORTH PERIMETER SPACE - STORY TOP,360.73,19.4,0.188,5.222E-004,2.724E-004,0.474,0.000,0.000,0.224,0.000
 ZoneInfiltration Airflow Stats Nominal, SOUTH PERIMETER SPACE - STORY GROUND INFILTRATION,ALWAYS ON DISCRETE,ZONE SOUTH PERIMETER SPACE - STORY GROUND,360.73,19.4,0.188,5.222E-004,5.696E-004,0.474,0.000,0.000,0.224,0.000
 ZoneInfiltration Airflow Stats Nominal, SOUTH PERIMETER SPACE - STORY MID INFILTRATION,ALWAYS ON DISCRETE,ZONE SOUTH PERIMETER SPACE - STORY MID,360.73,19.4,0.188,5.222E-004,5.696E-004,0.474,0.000,0.000,0.224,0.000
 ZoneInfiltration Airflow Stats Nominal, SOUTH PERIMETER SPACE - STORY TOP INFILTRATION,ALWAYS ON DISCRETE,ZONE SOUTH PERIMETER SPACE - STORY TOP,360.73,19.4,0.188,5.222E-004,2.724E-004,0.474,0.000,0.000,0.224,0.000
 ZoneInfiltration Airflow Stats Nominal, WEST PERIMETER SPACE - STORY GROUND INFILTRATION,ALWAYS ON DISCRETE,ZONE WEST PERIMETER SPACE - STORY GROUND,233.52,12.6,0.126,5.378E-004,5.696E-004,0.489,0.000,0.000,0.224,0.000
 ZoneInfiltration Airflow Stats Nominal, WEST PERIMETER SPACE - STORY MID INFILTRATION,ALWAYS ON DISCRETE,ZONE WEST PERIMETER SPACE - STORY MID,233.52,12.6,0.126,5.378E-004,5.696E-004,0.489,0.000,0.000,0.224,0.000
 ZoneInfiltration Airflow Stats Nominal, WEST PERIMETER SPACE - STORY TOP INFILTRATION,ALWAYS ON DISCRETE,ZONE WEST PERIMETER SPACE - STORY TOP,233.52,12.6,0.126,5.378E-004,2.766E-004,0.489,0.000,0.000,0.224,0.000
! <AirFlow Model>, Simple
 AirFlow Model, Simple
! <RoomAir Model>, Zone Name, Mixing/Mundt/UCSDDV/UCSDCV/UCSDUFI/UCSDUFE/User Defined
RoomAir Model,ZONE CORE SPACE - STORY GROUND,Mixing/Well-Stirred
RoomAir Model,ZONE CORE SPACE - STORY MID,Mixing/Well-Stirred
RoomAir Model,ZONE CORE SPACE - STORY TOP,Mixing/Well-Stirred
RoomAir Model,ZONE EAST PERIMETER SPACE - STORY GROUND,Mixing/Well-Stirred
RoomAir Model,ZONE EAST PERIMETER SPACE - STORY MID,Mixing/Well-Stirred
RoomAir Model,ZONE EAST PERIMETER SPACE - STORY TOP,Mixing/Well-Stirred
RoomAir Model,ZONE NORTH PERIMETER SPACE - STORY GROUND,Mixing/Well-Stirred
RoomAir Model,ZONE NORTH PERIMETER SPACE - STORY MID,Mixing/Well-Stirred
RoomAir Model,ZONE NORTH PERIMETER SPACE - STORY TOP,Mixing/Well-Stirred
RoomAir Model,ZONE SOUTH PERIMETER SPACE - STORY GROUND,Mixing/Well-Stirred
RoomAir Model,ZONE SOUTH PERIMETER SPACE - STORY MID,Mixing/Well-Stirred
RoomAir Model,ZONE SOUTH PERIMETER SPACE - STORY TOP,Mixing/Well-Stirred
RoomAir Model,ZONE WEST PERIMETER SPACE - STORY GROUND,Mixing/Well-Stirred
RoomAir Model,ZONE WEST PERIMETER SPACE - STORY MID,Mixing/Well-Stirred
RoomAir Model,ZONE WEST PERIMETER SPACE - STORY TOP,Mixing/Well-Stirred
! <AirflowNetwork Model:Control>, No Multizone or Distribution/Multizone with Distribution/Multizone without Distribution/Multizone with Distribution only during Fan Operation
AirflowNetwork Model:Control,NoMultizoneOrDistribution
! <Zone Volume Capacitance Multiplier>, Sensible Heat Capacity Multiplier, Moisture Capacity Multiplier, Carbon Dioxide Capacity Multiplier, Generic Contaminant Capacity Multiplier
Zone Volume Capacitance Multiplier,   1.000 ,   1.000,   1.000,   1.000
! <Water Heater Information>,Type,Name,Volume {m3},Maximum Capacity {W},Standard Rated Recovery Efficiency, Standard Rated Energy Factor
Water Heater Information,WaterHeater:Mixed,569GAL NATURALGAS WATER HEATER - 569KBTU/HR,2.1545,166807.5,0.303,0.6158
! <Component Sizing Information>, Component Type, Component Name, Input Field Description, Value
 Component Sizing Information, PlantLoop, OFFICE SHARED SERVICE WATER LOOP, Initial Maximum Loop Flow Rate [m3/s], 9.99975E-004
 Component Sizing Information, PlantLoop, OFFICE SHARED SERVICE WATER LOOP, Initial Plant Loop Volume [m3], 0.12000
 Component Sizing Information, Pump:ConstantSpeed, OFFICE SHARED SERVICE WATER LOOP CIRCULATOR PUMP, Initial Design Flow Rate [m3/s], 9.99975E-004
 Component Sizing Information, Pump:ConstantSpeed, OFFICE SHARED SERVICE WATER LOOP CIRCULATOR PUMP, Initial Design Power Consumption [W], 127.73473
 Component Sizing Information, WaterHeater:Mixed, 569GAL NATURALGAS WATER HEATER - 569KBTU/HR, Initial Use Side Design Flow Rate [m3/s], 9.99975E-004
! <Environment>,Environment Name,Environment Type, Start Date, End Date, Start DayOfWeek, Duration {#days}, Source:Start DayOfWeek,  Use Daylight Saving, Use Holidays, Apply Weekend Holiday Rule,  Use Rain Values, Use Snow Values, Sky Temperature Model
! <Environment:Special Days>, Special Day Name, Special Day Type, Source, Start Date, Duration {#days}
! <Environment:Daylight Saving>, Daylight Saving Indicator, Source, Start Date, End Date
! <Environment:WarmupDays>, NumberofWarmupDays
Environment,TUCSON INTERNATIONAL AP ANN CLG .4% CONDNS DB=>MWB 1,SizingPeriod:DesignDay,07/21,07/21,SummerDesignDay,1,N/A,N/A,N/A,N/A,N/A,N/A,Clark and Allen
Environment:Daylight Saving,No,SizingPeriod:DesignDay
Environment,TUCSON INTERNATIONAL AP ANN CLG .4% CONDNS WB=>MDB 1,SizingPeriod:DesignDay,07/21,07/21,SummerDesignDay,1,N/A,N/A,N/A,N/A,N/A,N/A,Clark and Allen
Environment:Daylight Saving,No,SizingPeriod:DesignDay
Environment,TUCSON INTERNATIONAL AP ANN HTG 99.6% CONDNS DB 1,SizingPeriod:DesignDay,12/21,12/21,WinterDesignDay,1,N/A,N/A,N/A,N/A,N/A,N/A,Clark and Allen
Environment:Daylight Saving,No,SizingPeriod:DesignDay
Environment,TUCSON INTERNATIONAL AP ANN CLG .4% CONDNS DB=>MWB 1 HVAC Sizing Pass 1,SizingPeriod:DesignDay,07/21,07/21,SummerDesignDay,1,N/A,N/A,N/A,N/A,N/A,N/A,Clark and Allen
Environment:Daylight Saving,No,SizingPeriod:DesignDay
! <Environment:Design Day Data>, Max Dry-Bulb Temp {C}, Temp Range {dC}, Temp Range Ind Type, Hum Ind Type, Hum Ind Value at Max Temp, Hum Ind Units, Pressure {Pa}, Wind Direction {deg CW from N}, Wind Speed {m/s}, Clearness, Rain, Snow
! <Environment:Design Day Misc>,DayOfYear,ASHRAE A Coeff,ASHRAE B Coeff,ASHRAE C Coeff,Solar Constant-Annual Variation,Eq of Time {minutes}, Solar Declination Angle {deg}, Solar Model
Environment:Design Day Data,41.10,13.80,DefaultMultipliers,Wetbulb,19.00,{C},92332,300,5.0,0.00,No,No
Environment:Design Day Misc,202,1084.4,0.2082,0.1365,1.0,-6.23,20.6,ASHRAETau
Environment:WarmupDays, 19
! <Tabular Report>,Style,Unit Conversion
Tabular Report,HTML,None
! <Warmup Convergence Information>,Zone Name,Environment Type/Name,Average Warmup Temperature Difference {deltaC},Std Dev Warmup Temperature Difference {deltaC},Max Temperature Pass/Fail Convergence,Min Temperature Pass/Fail Convergence,Average Warmup Load Difference {W},Std Dev Warmup Load Difference {W},Heating Load Pass/Fail Convergence,Cooling Load Pass/Fail Convergence
 Warmup Convergence Information,ZONE CORE SPACE - STORY GROUND,SizingPeriod: TUCSON INTERNATIONAL AP ANN CLG .4% CONDNS DB=>MWB 1 HVAC Sizing Pass 1,2.1818758532E-002,3.2702609934E-002,Pass,Pass,0.0000000000,0.0000000000,Pass,Pass
 Warmup Convergence Information,ZONE CORE SPACE - STORY MID,SizingPeriod: TUCSON INTERNATIONAL AP ANN CLG .4% CONDNS DB=>MWB 1 HVAC Sizing Pass 1,1.4977318459E-002,6.7211272269E-003,Pass,Pass,0.0000000000,0.0000000000,Pass,Pass
 Warmup Convergence Information,ZONE CORE SPACE - STORY TOP,SizingPeriod: TUCSON INTERNATIONAL AP ANN CLG .4% CONDNS DB=>MWB 1 HVAC Sizing Pass 1,0.1476939201,6.6218995424E-002,Pass,Pass,0.0000000000,0.0000000000,Pass,Pass
 Warmup Convergence Information,ZONE EAST PERIMETER SPACE - STORY GROUND,SizingPeriod: TUCSON INTERNATIONAL AP ANN CLG .4% CONDNS DB=>MWB 1 HVAC Sizing Pass 1,0.2531913667,0.3172505228,Pass,Pass,0.0000000000,0.0000000000,Pass,Pass
 Warmup Convergence Information,ZONE EAST PERIMETER SPACE - STORY MID,SizingPeriod: TUCSON INTERNATIONAL AP ANN CLG .4% CONDNS DB=>MWB 1 HVAC Sizing Pass 1,0.2359089290,0.2637475905,Pass,Pass,0.0000000000,0.0000000000,Pass,Pass
 Warmup Convergence Information,ZONE EAST PERIMETER SPACE - STORY TOP,SizingPeriod: TUCSON INTERNATIONAL AP ANN CLG .4% CONDNS DB=>MWB 1 HVAC Sizing Pass 1,0.3816688010,0.3874056412,Pass,Pass,0.0000000000,0.0000000000,Pass,Pass
 Warmup Convergence Information,ZONE NORTH PERIMETER SPACE - STORY GROUND,SizingPeriod: TUCSON INTERNATIONAL AP ANN CLG .4% CONDNS DB=>MWB 1 HVAC Sizing Pass 1,0.1261649079,0.1208329320,Pass,Pass,0.0000000000,0.0000000000,Pass,Pass
 Warmup Convergence Information,ZONE NORTH PERIMETER SPACE - STORY MID,SizingPeriod: TUCSON INTERNATIONAL AP ANN CLG .4% CONDNS DB=>MWB 1 HVAC Sizing Pass 1,0.1380745999,9.7696127437E-002,Pass,Pass,0.0000000000,0.0000000000,Pass,Pass
 Warmup Convergence Information,ZONE NORTH PERIMETER SPACE - STORY TOP,SizingPeriod: TUCSON INTERNATIONAL AP ANN CLG .4% CONDNS DB=>MWB 1 HVAC Sizing Pass 1,0.2524689215,0.1484535729,Pass,Pass,0.0000000000,0.0000000000,Pass,Pass
 Warmup Convergence Information,ZONE SOUTH PERIMETER SPACE - STORY GROUND,SizingPeriod: TUCSON INTERNATIONAL AP ANN CLG .4% CONDNS DB=>MWB 1 HVAC Sizing Pass 1,0.1555379328,9.5433862078E-002,Pass,Pass,0.0000000000,0.0000000000,Pass,Pass
 Warmup Convergence Information,ZONE SOUTH PERIMETER SPACE - STORY MID,SizingPeriod: TUCSON INTERNATIONAL AP ANN CLG .4% CONDNS DB=>MWB 1 HVAC Sizing Pass 1,0.1658970280,0.1013292023,Pass,Pass,0.0000000000,0.0000000000,Pass,Pass
 Warmup Convergence Information,ZONE SOUTH PERIMETER SPACE - STORY TOP,SizingPeriod: TUCSON INTERNATIONAL AP ANN CLG .4% CONDNS DB=>MWB 1 HVAC Sizing Pass 1,0.2976225587,0.1761130513,Pass,Pass,0.0000000000,0.0000000000,Pass,Pass
 Warmup Convergence Information,ZONE WEST PERIMETER SPACE - STORY GROUND,SizingPeriod: TUCSON INTERNATIONAL AP ANN CLG .4% CONDNS DB=>MWB 1 HVAC Sizing Pass 1,0.2886712338,0.2997710218,Pass,Pass,0.0000000000,0.0000000000,Pass,Pass
 Warmup Convergence Information,ZONE WEST PERIMETER SPACE - STORY MID,SizingPeriod: TUCSON INTERNATIONAL AP ANN CLG .4% CONDNS DB=>MWB 1 HVAC Sizing Pass 1,0.2673866507,0.2461889740,Pass,Pass,0.0000000000,0.0000000000,Pass,Pass
 Warmup Convergence Information,ZONE WEST PERIMETER SPACE - STORY TOP,SizingPeriod: TUCSON INTERNATIONAL AP ANN CLG .4% CONDNS DB=>MWB 1 HVAC Sizing Pass 1,0.4761962654,0.3716965364,Pass,Pass,0.0000000000,0.0000000000,Pass,Pass
Environment,TUCSON INTERNATIONAL AP ANN CLG .4% CONDNS WB=>MDB 1 HVAC Sizing Pass 1,SizingPeriod:DesignDay,07/21,07/21,SummerDesignDay,1,N/A,N/A,N/A,N/A,N/A,N/A,Clark and Allen
Environment:Daylight Saving,No,SizingPeriod:DesignDay
Environment:Design Day Data,31.60,13.80,DefaultMultipliers,Wetbulb,22.50,{C},92332,300,5.0,0.00,No,No
Environment:Design Day Misc,202,1084.4,0.2082,0.1365,1.0,-6.23,20.6,ASHRAETau
Environment:WarmupDays, 19
 Warmup Convergence Information,ZONE CORE SPACE - STORY GROUND,SizingPeriod: TUCSON INTERNATIONAL AP ANN CLG .4% CONDNS WB=>MDB 1 HVAC Sizing Pass 1,2.2516326218E-002,3.4801692271E-002,Pass,Pass,0.0000000000,0.0000000000,Pass,Pass
 Warmup Convergence Information,ZONE CORE SPACE - STORY MID,SizingPeriod: TUCSON INTERNATIONAL AP ANN CLG .4% CONDNS WB=>MDB 1 HVAC Sizing Pass 1,1.5700865287E-002,6.9907416293E-003,Pass,Pass,0.0000000000,0.0000000000,Pass,Pass
 Warmup Convergence Information,ZONE CORE SPACE - STORY TOP,SizingPeriod: TUCSON INTERNATIONAL AP ANN CLG .4% CONDNS WB=>MDB 1 HVAC Sizing Pass 1,0.1469719885,6.6084394650E-002,Pass,Pass,0.0000000000,0.0000000000,Pass,Pass
 Warmup Convergence Information,ZONE EAST PERIMETER SPACE - STORY GROUND,SizingPeriod: TUCSON INTERNATIONAL AP ANN CLG .4% CONDNS WB=>MDB 1 HVAC Sizing Pass 1,0.2595904811,0.3303899621,Pass,Pass,0.0000000000,0.0000000000,Pass,Pass
 Warmup Convergence Information,ZONE EAST PERIMETER SPACE - STORY MID,SizingPeriod: TUCSON INTERNATIONAL AP ANN CLG .4% CONDNS WB=>MDB 1 HVAC Sizing Pass 1,0.2393326993,0.2689752074,Pass,Pass,0.0000000000,0.0000000000,Pass,Pass
 Warmup Convergence Information,ZONE EAST PERIMETER SPACE - STORY TOP,SizingPeriod: TUCSON INTERNATIONAL AP ANN CLG .4% CONDNS WB=>MDB 1 HVAC Sizing Pass 1,0.3840225758,0.3888738694,Pass,Pass,0.0000000000,0.0000000000,Pass,Pass
 Warmup Convergence Information,ZONE NORTH PERIMETER SPACE - STORY GROUND,SizingPeriod: TUCSON INTERNATIONAL AP ANN CLG .4% CONDNS WB=>MDB 1 HVAC Sizing Pass 1,0.1342592214,0.1342159208,Pass,Pass,0.0000000000,0.0000000000,Pass,Pass
 Warmup Convergence Information,ZONE NORTH PERIMETER SPACE - STORY MID,SizingPeriod: TUCSON INTERNATIONAL AP ANN CLG .4% CONDNS WB=>MDB 1 HVAC Sizing Pass 1,0.1393260188,9.9388584514E-002,Pass,Pass,0.0000000000,0.0000000000,Pass,Pass
 Warmup Convergence Information,ZONE NORTH PERIMETER SPACE - STORY TOP,SizingPeriod: TUCSON INTERNATIONAL AP ANN CLG .4% CONDNS WB=>MDB 1 HVAC Sizing Pass 1,0.2528576724,0.1483051787,Pass,Pass,0.0000000000,0.0000000000,Pass,Pass
 Warmup Convergence Information,ZONE SOUTH PERIMETER SPACE - STORY GROUND,SizingPeriod: TUCSON INTERNATIONAL AP ANN CLG .4% CONDNS WB=>MDB 1 HVAC Sizing Pass 1,0.1636494557,0.1030923249,Pass,Pass,0.0000000000,0.0000000000,Pass,Pass
 Warmup Convergence Information,ZONE SOUTH PERIMETER SPACE - STORY MID,SizingPeriod: TUCSON INTERNATIONAL AP ANN CLG .4% CONDNS WB=>MDB 1 HVAC Sizing Pass 1,0.1681445934,0.1030981514,Pass,Pass,0.0000000000,0.0000000000,Pass,Pass
 Warmup Convergence Information,ZONE SOUTH PERIMETER SPACE - STORY TOP,SizingPeriod: TUCSON INTERNATIONAL AP ANN CLG .4% CONDNS WB=>MDB 1 HVAC Sizing Pass 1,0.2985773150,0.1754216375,Pass,Pass,0.0000000000,0.0000000000,Pass,Pass
 Warmup Convergence Information,ZONE WEST PERIMETER SPACE - STORY GROUND,SizingPeriod: TUCSON INTERNATIONAL AP ANN CLG .4% CONDNS WB=>MDB 1 HVAC Sizing Pass 1,0.2950618911,0.2957796423,Pass,Pass,0.0000000000,0.0000000000,Pass,Pass
 Warmup Convergence Information,ZONE WEST PERIMETER SPACE - STORY MID,SizingPeriod: TUCSON INTERNATIONAL AP ANN CLG .4% CONDNS WB=>MDB 1 HVAC Sizing Pass 1,0.2706089960,0.2511083965,Pass,Pass,0.0000000000,0.0000000000,Pass,Pass
 Warmup Convergence Information,ZONE WEST PERIMETER SPACE - STORY TOP,SizingPeriod: TUCSON INTERNATIONAL AP ANN CLG .4% CONDNS WB=>MDB 1 HVAC Sizing Pass 1,0.4775544295,0.3711393442,Pass,Pass,0.0000000000,0.0000000000,Pass,Pass
Environment,TUCSON INTERNATIONAL AP ANN HTG 99.6% CONDNS DB 1 HVAC Sizing Pass 1,SizingPeriod:DesignDay,12/21,12/21,WinterDesignDay,1,N/A,N/A,N/A,N/A,N/A,N/A,Clark and Allen
Environment:Daylight Saving,No,SizingPeriod:DesignDay
Environment:Design Day Data,-0.20,0.00,DefaultMultipliers,Wetbulb,-0.20,{C},92332,140,2.5,0.00,No,No
Environment:Design Day Misc,355,1232.8,0.1424,5.7719E-002,1.0,2.45,-23.5,ASHRAEClearSky
Environment:WarmupDays, 19
 Warmup Convergence Information,ZONE CORE SPACE - STORY GROUND,SizingPeriod: TUCSON INTERNATIONAL AP ANN HTG 99.6% CONDNS DB 1 HVAC Sizing Pass 1,4.5961382848E-010,1.2431813732E-010,Pass,Pass,0.0000000000,0.0000000000,Pass,Pass
 Warmup Convergence Information,ZONE CORE SPACE - STORY MID,SizingPeriod: TUCSON INTERNATIONAL AP ANN HTG 99.6% CONDNS DB 1 HVAC Sizing Pass 1,2.9612417968E-003,9.7626869996E-005,Pass,Pass,0.0000000000,0.0000000000,Pass,Pass
 Warmup Convergence Information,ZONE CORE SPACE - STORY TOP,SizingPeriod: TUCSON INTERNATIONAL AP ANN HTG 99.6% CONDNS DB 1 HVAC Sizing Pass 1,1.0550625188E-011,3.5577455218E-012,Pass,Pass,0.0000000000,0.0000000000,Pass,Pass
 Warmup Convergence Information,ZONE EAST PERIMETER SPACE - STORY GROUND,SizingPeriod: TUCSON INTERNATIONAL AP ANN HTG 99.6% CONDNS DB 1 HVAC Sizing Pass 1,2.8807795038E-010,7.7974558014E-011,Pass,Pass,0.0000000000,0.0000000000,Pass,Pass
 Warmup Convergence Information,ZONE EAST PERIMETER SPACE - STORY MID,SizingPeriod: TUCSON INTERNATIONAL AP ANN HTG 99.6% CONDNS DB 1 HVAC Sizing Pass 1,1.2709978407E-003,4.4672401168E-005,Pass,Pass,0.0000000000,0.0000000000,Pass,Pass
 Warmup Convergence Information,ZONE EAST PERIMETER SPACE - STORY TOP,SizingPeriod: TUCSON INTERNATIONAL AP ANN HTG 99.6% CONDNS DB 1 HVAC Sizing Pass 1,5.2032128606E-012,1.7567414764E-012,Pass,Pass,0.0000000000,0.0000000000,Pass,Pass
 Warmup Convergence Information,ZONE NORTH PERIMETER SPACE - STORY GROUND,SizingPeriod: TUCSON INTERNATIONAL AP ANN HTG 99.6% CONDNS DB 1 HVAC Sizing Pass 1,2.8733467457E-010,7.7760908386E-011,Pass,Pass,0.0000000000,0.0000000000,Pass,Pass
 Warmup Convergence Information,ZONE NORTH PERIMETER SPACE - STORY MID,SizingPeriod: TUCSON INTERNATIONAL AP ANN HTG 99.6% CONDNS DB 1 HVAC Sizing Pass 1,1.3189164849E-003,4.6170333700E-005,Pass,Pass,0.0000000000,0.0000000000,Pass,Pass
 Warmup Convergence Information,ZONE NORTH PERIMETER SPACE - STORY TOP,SizingPeriod: TUCSON INTERNATIONAL AP ANN HTG 99.6% CONDNS DB 1 HVAC Sizing Pass 1,5.3317165497E-012,1.8037939532E-012,Pass,Pass,0.0000000000,0.0000000000,Pass,Pass
 Warmup Convergence Information,ZONE SOUTH PERIMETER SPACE - STORY GROUND,SizingPeriod: TUCSON INTERNATIONAL AP ANN HTG 99.6% CONDNS DB 1 HVAC Sizing Pass 1,2.9333011945E-010,7.9389215428E-011,Pass,Pass,0.0000000000,0.0000000000,Pass,Pass
 Warmup Convergence Information,ZONE SOUTH PERIMETER SPACE - STORY MID,SizingPeriod: TUCSON INTERNATIONAL AP ANN HTG 99.6% CONDNS DB 1 HVAC Sizing Pass 1,1.3113261197E-003,4.5962487029E-005,Pass,Pass,0.0000000000,0.0000000000,Pass,Pass
 Warmup Convergence Information,ZONE SOUTH PERIMETER SPACE - STORY TOP,SizingPeriod: TUCSON INTERNATIONAL AP ANN HTG 99.6% CONDNS DB 1 HVAC Sizing Pass 1,5.3583295208E-012,1.8126373493E-012,Pass,Pass,0.0000000000,0.0000000000,Pass,Pass
 Warmup Convergence Information,ZONE WEST PERIMETER SPACE - STORY GROUND,SizingPeriod: TUCSON INTERNATIONAL AP ANN HTG 99.6% CONDNS DB 1 HVAC Sizing Pass 1,2.8221515865E-010,7.6377871380E-011,Pass,Pass,0.0000000000,0.0000000000,Pass,Pass
 Warmup Convergence Information,ZONE WEST PERIMETER SPACE - STORY MID,SizingPeriod: TUCSON INTERNATIONAL AP ANN HTG 99.6% CONDNS DB 1 HVAC Sizing Pass 1,1.2784010894E-003,4.4865508064E-005,Pass,Pass,0.0000000000,0.0000000000,Pass,Pass
 Warmup Convergence Information,ZONE WEST PERIMETER SPACE - STORY TOP,SizingPeriod: TUCSON INTERNATIONAL AP ANN HTG 99.6% CONDNS DB 1 HVAC Sizing Pass 1,5.1855880701E-012,1.7537261714E-012,Pass,Pass,0.0000000000,0.0000000000,Pass,Pass
Environment,TUCSON INTERNATIONAL AP ANN CLG .4% CONDNS DB=>MWB 1,SizingPeriod:DesignDay,07/21,07/21,SummerDesignDay,1,N/A,N/A,N/A,N/A,N/A,N/A,Clark and Allen
Environment:Daylight Saving,No,SizingPeriod:DesignDay
Environment:Design Day Data,41.10,13.80,DefaultMultipliers,Wetbulb,19.00,{C},92332,300,5.0,0.00,No,No
Environment:Design Day Misc,202,1084.4,0.2082,0.1365,1.0,-6.23,20.6,ASHRAETau
 Component Sizing Information, PlantLoop, OFFICE SHARED SERVICE WATER LOOP, Maximum Loop Flow Rate [m3/s], 9.99975E-004
 Component Sizing Information, PlantLoop, OFFICE SHARED SERVICE WATER LOOP, Plant Loop Volume [m3], 0.12000
 Component Sizing Information, WaterHeater:Mixed, 569GAL NATURALGAS WATER HEATER - 569KBTU/HR, Use Side Design Flow Rate [m3/s], 9.99975E-004
 Component Sizing Information, Pump:ConstantSpeed, OFFICE SHARED SERVICE WATER LOOP CIRCULATOR PUMP, Design Flow Rate [m3/s], 9.99975E-004
 Component Sizing Information, Pump:ConstantSpeed, OFFICE SHARED SERVICE WATER LOOP CIRCULATOR PUMP, Design Power Consumption [W], 127.73473
Environment,TUCSON INTERNATIONAL AP ANN CLG .4% CONDNS WB=>MDB 1,SizingPeriod:DesignDay,07/21,07/21,SummerDesignDay,1,N/A,N/A,N/A,N/A,N/A,N/A,Clark and Allen
Environment:Daylight Saving,No,SizingPeriod:DesignDay
Environment:Design Day Data,31.60,13.80,DefaultMultipliers,Wetbulb,22.50,{C},92332,300,5.0,0.00,No,No
Environment:Design Day Misc,202,1084.4,0.2082,0.1365,1.0,-6.23,20.6,ASHRAETau
Environment,TUCSON INTERNATIONAL AP ANN HTG 99.6% CONDNS DB 1,SizingPeriod:DesignDay,12/21,12/21,WinterDesignDay,1,N/A,N/A,N/A,N/A,N/A,N/A,Clark and Allen
Environment:Daylight Saving,No,SizingPeriod:DesignDay
Environment:Design Day Data,-0.20,0.00,DefaultMultipliers,Wetbulb,-0.20,{C},92332,140,2.5,0.00,No,No
Environment:Design Day Misc,355,1232.8,0.1424,5.7719E-002,1.0,2.45,-23.5,ASHRAEClearSky
Environment,TUCSON INTERNATIONAL AP ANN CLG .4% CONDNS DB=>MWB 1 HVAC Sizing Pass 1,SizingPeriod:DesignDay,07/21,07/21,SummerDesignDay,1,N/A,N/A,N/A,N/A,N/A,N/A,Clark and Allen
Environment:Daylight Saving,No,SizingPeriod:DesignDay
Environment:Design Day Data,41.10,13.80,DefaultMultipliers,Wetbulb,19.00,{C},92332,300,5.0,0.00,No,No
Environment:Design Day Misc,202,1084.4,0.2082,0.1365,1.0,-6.23,20.6,ASHRAETau
Environment,TUCSON INTERNATIONAL AP ANN CLG .4% CONDNS WB=>MDB 1 HVAC Sizing Pass 1,SizingPeriod:DesignDay,07/21,07/21,SummerDesignDay,1,N/A,N/A,N/A,N/A,N/A,N/A,Clark and Allen
Environment:Daylight Saving,No,SizingPeriod:DesignDay
Environment:Design Day Data,31.60,13.80,DefaultMultipliers,Wetbulb,22.50,{C},92332,300,5.0,0.00,No,No
Environment:Design Day Misc,202,1084.4,0.2082,0.1365,1.0,-6.23,20.6,ASHRAETau
Environment,TUCSON INTERNATIONAL AP ANN HTG 99.6% CONDNS DB 1 HVAC Sizing Pass 1,SizingPeriod:DesignDay,12/21,12/21,WinterDesignDay,1,N/A,N/A,N/A,N/A,N/A,N/A,Clark and Allen
Environment:Daylight Saving,No,SizingPeriod:DesignDay
Environment:Design Day Data,-0.20,0.00,DefaultMultipliers,Wetbulb,-0.20,{C},92332,140,2.5,0.00,No,No
Environment:Design Day Misc,355,1232.8,0.1424,5.7719E-002,1.0,2.45,-23.5,ASHRAEClearSky
Environment,TUCSON INTERNATIONAL AP ANN CLG .4% CONDNS DB=>MWB 1,SizingPeriod:DesignDay,07/21,07/21,SummerDesignDay,1,N/A,N/A,N/A,N/A,N/A,N/A,Clark and Allen
Environment:Daylight Saving,No,SizingPeriod:DesignDay
Environment:Design Day Data,41.10,13.80,DefaultMultipliers,Wetbulb,19.00,{C},92332,300,5.0,0.00,No,No
Environment:Design Day Misc,202,1084.4,0.2082,0.1365,1.0,-6.23,20.6,ASHRAETau
Environment:WarmupDays, 19
 Warmup Convergence Information,ZONE CORE SPACE - STORY GROUND,SizingPeriod: TUCSON INTERNATIONAL AP ANN CLG .4% CONDNS DB=>MWB 1,2.1818758532E-002,3.2702609934E-002,Pass,Pass,0.0000000000,0.0000000000,Pass,Pass
 Warmup Convergence Information,ZONE CORE SPACE - STORY MID,SizingPeriod: TUCSON INTERNATIONAL AP ANN CLG .4% CONDNS DB=>MWB 1,1.4977318459E-002,6.7211272269E-003,Pass,Pass,0.0000000000,0.0000000000,Pass,Pass
 Warmup Convergence Information,ZONE CORE SPACE - STORY TOP,SizingPeriod: TUCSON INTERNATIONAL AP ANN CLG .4% CONDNS DB=>MWB 1,0.1476939201,6.6218995424E-002,Pass,Pass,0.0000000000,0.0000000000,Pass,Pass
 Warmup Convergence Information,ZONE EAST PERIMETER SPACE - STORY GROUND,SizingPeriod: TUCSON INTERNATIONAL AP ANN CLG .4% CONDNS DB=>MWB 1,0.2531913667,0.3172505228,Pass,Pass,0.0000000000,0.0000000000,Pass,Pass
 Warmup Convergence Information,ZONE EAST PERIMETER SPACE - STORY MID,SizingPeriod: TUCSON INTERNATIONAL AP ANN CLG .4% CONDNS DB=>MWB 1,0.2359089290,0.2637475905,Pass,Pass,0.0000000000,0.0000000000,Pass,Pass
 Warmup Convergence Information,ZONE EAST PERIMETER SPACE - STORY TOP,SizingPeriod: TUCSON INTERNATIONAL AP ANN CLG .4% CONDNS DB=>MWB 1,0.3816688010,0.3874056412,Pass,Pass,0.0000000000,0.0000000000,Pass,Pass
 Warmup Convergence Information,ZONE NORTH PERIMETER SPACE - STORY GROUND,SizingPeriod: TUCSON INTERNATIONAL AP ANN CLG .4% CONDNS DB=>MWB 1,0.1261649079,0.1208329320,Pass,Pass,0.0000000000,0.0000000000,Pass,Pass
 Warmup Convergence Information,ZONE NORTH PERIMETER SPACE - STORY MID,SizingPeriod: TUCSON INTERNATIONAL AP ANN CLG .4% CONDNS DB=>MWB 1,0.1380745999,9.7696127437E-002,Pass,Pass,0.0000000000,0.0000000000,Pass,Pass
 Warmup Convergence Information,ZONE NORTH PERIMETER SPACE - STORY TOP,SizingPeriod: TUCSON INTERNATIONAL AP ANN CLG .4% CONDNS DB=>MWB 1,0.2524689215,0.1484535729,Pass,Pass,0.0000000000,0.0000000000,Pass,Pass
 Warmup Convergence Information,ZONE SOUTH PERIMETER SPACE - STORY GROUND,SizingPeriod: TUCSON INTERNATIONAL AP ANN CLG .4% CONDNS DB=>MWB 1,0.1555379328,9.5433862078E-002,Pass,Pass,0.0000000000,0.0000000000,Pass,Pass
 Warmup Convergence Information,ZONE SOUTH PERIMETER SPACE - STORY MID,SizingPeriod: TUCSON INTERNATIONAL AP ANN CLG .4% CONDNS DB=>MWB 1,0.1658970280,0.1013292023,Pass,Pass,0.0000000000,0.0000000000,Pass,Pass
 Warmup Convergence Information,ZONE SOUTH PERIMETER SPACE - STORY TOP,SizingPeriod: TUCSON INTERNATIONAL AP ANN CLG .4% CONDNS DB=>MWB 1,0.2976225587,0.1761130513,Pass,Pass,0.0000000000,0.0000000000,Pass,Pass
 Warmup Convergence Information,ZONE WEST PERIMETER SPACE - STORY GROUND,SizingPeriod: TUCSON INTERNATIONAL AP ANN CLG .4% CONDNS DB=>MWB 1,0.2886712338,0.2997710218,Pass,Pass,0.0000000000,0.0000000000,Pass,Pass
 Warmup Convergence Information,ZONE WEST PERIMETER SPACE - STORY MID,SizingPeriod: TUCSON INTERNATIONAL AP ANN CLG .4% CONDNS DB=>MWB 1,0.2673866507,0.2461889740,Pass,Pass,0.0000000000,0.0000000000,Pass,Pass
 Warmup Convergence Information,ZONE WEST PERIMETER SPACE - STORY TOP,SizingPeriod: TUCSON INTERNATIONAL AP ANN CLG .4% CONDNS DB=>MWB 1,0.4761962654,0.3716965364,Pass,Pass,0.0000000000,0.0000000000,Pass,Pass
Environment,TUCSON INTERNATIONAL AP ANN CLG .4% CONDNS WB=>MDB 1,SizingPeriod:DesignDay,07/21,07/21,SummerDesignDay,1,N/A,N/A,N/A,N/A,N/A,N/A,Clark and Allen
Environment:Daylight Saving,No,SizingPeriod:DesignDay
Environment:Design Day Data,31.60,13.80,DefaultMultipliers,Wetbulb,22.50,{C},92332,300,5.0,0.00,No,No
Environment:Design Day Misc,202,1084.4,0.2082,0.1365,1.0,-6.23,20.6,ASHRAETau
Environment:WarmupDays, 19
 Warmup Convergence Information,ZONE CORE SPACE - STORY GROUND,SizingPeriod: TUCSON INTERNATIONAL AP ANN CLG .4% CONDNS WB=>MDB 1,2.2516326218E-002,3.4801692271E-002,Pass,Pass,0.0000000000,0.0000000000,Pass,Pass
 Warmup Convergence Information,ZONE CORE SPACE - STORY MID,SizingPeriod: TUCSON INTERNATIONAL AP ANN CLG .4% CONDNS WB=>MDB 1,1.5700865287E-002,6.9907416293E-003,Pass,Pass,0.0000000000,0.0000000000,Pass,Pass
 Warmup Convergence Information,ZONE CORE SPACE - STORY TOP,SizingPeriod: TUCSON INTERNATIONAL AP ANN CLG .4% CONDNS WB=>MDB 1,0.1469719885,6.6084394650E-002,Pass,Pass,0.0000000000,0.0000000000,Pass,Pass
 Warmup Convergence Information,ZONE EAST PERIMETER SPACE - STORY GROUND,SizingPeriod: TUCSON INTERNATIONAL AP ANN CLG .4% CONDNS WB=>MDB 1,0.2595904811,0.3303899621,Pass,Pass,0.0000000000,0.0000000000,Pass,Pass
 Warmup Convergence Information,ZONE EAST PERIMETER SPACE - STORY MID,SizingPeriod: TUCSON INTERNATIONAL AP ANN CLG .4% CONDNS WB=>MDB 1,0.2393326993,0.2689752074,Pass,Pass,0.0000000000,0.0000000000,Pass,Pass
 Warmup Convergence Information,ZONE EAST PERIMETER SPACE - STORY TOP,SizingPeriod: TUCSON INTERNATIONAL AP ANN CLG .4% CONDNS WB=>MDB 1,0.3840225758,0.3888738694,Pass,Pass,0.0000000000,0.0000000000,Pass,Pass
 Warmup Convergence Information,ZONE NORTH PERIMETER SPACE - STORY GROUND,SizingPeriod: TUCSON INTERNATIONAL AP ANN CLG .4% CONDNS WB=>MDB 1,0.1342592214,0.1342159208,Pass,Pass,0.0000000000,0.0000000000,Pass,Pass
 Warmup Convergence Information,ZONE NORTH PERIMETER SPACE - STORY MID,SizingPeriod: TUCSON INTERNATIONAL AP ANN CLG .4% CONDNS WB=>MDB 1,0.1393260188,9.9388584514E-002,Pass,Pass,0.0000000000,0.0000000000,Pass,Pass
 Warmup Convergence Information,ZONE NORTH PERIMETER SPACE - STORY TOP,SizingPeriod: TUCSON INTERNATIONAL AP ANN CLG .4% CONDNS WB=>MDB 1,0.2528576724,0.1483051787,Pass,Pass,0.0000000000,0.0000000000,Pass,Pass
 Warmup Convergence Information,ZONE SOUTH PERIMETER SPACE - STORY GROUND,SizingPeriod: TUCSON INTERNATIONAL AP ANN CLG .4% CONDNS WB=>MDB 1,0.1636494557,0.1030923249,Pass,Pass,0.0000000000,0.0000000000,Pass,Pass
 Warmup Convergence Information,ZONE SOUTH PERIMETER SPACE - STORY MID,SizingPeriod: TUCSON INTERNATIONAL AP ANN CLG .4% CONDNS WB=>MDB 1,0.1681445934,0.1030981514,Pass,Pass,0.0000000000,0.0000000000,Pass,Pass
 Warmup Convergence Information,ZONE SOUTH PERIMETER SPACE - STORY TOP,SizingPeriod: TUCSON INTERNATIONAL AP ANN CLG .4% CONDNS WB=>MDB 1,0.2985773150,0.1754216375,Pass,Pass,0.0000000000,0.0000000000,Pass,Pass
 Warmup Convergence Information,ZONE WEST PERIMETER SPACE - STORY GROUND,SizingPeriod: TUCSON INTERNATIONAL AP ANN CLG .4% CONDNS WB=>MDB 1,0.2950618911,0.2957796423,Pass,Pass,0.0000000000,0.0000000000,Pass,Pass
 Warmup Convergence Information,ZONE WEST PERIMETER SPACE - STORY MID,SizingPeriod: TUCSON INTERNATIONAL AP ANN CLG .4% CONDNS WB=>MDB 1,0.2706089960,0.2511083965,Pass,Pass,0.0000000000,0.0000000000,Pass,Pass
 Warmup Convergence Information,ZONE WEST PERIMETER SPACE - STORY TOP,SizingPeriod: TUCSON INTERNATIONAL AP ANN CLG .4% CONDNS WB=>MDB 1,0.4775544295,0.3711393442,Pass,Pass,0.0000000000,0.0000000000,Pass,Pass
Environment,TUCSON INTERNATIONAL AP ANN HTG 99.6% CONDNS DB 1,SizingPeriod:DesignDay,12/21,12/21,WinterDesignDay,1,N/A,N/A,N/A,N/A,N/A,N/A,Clark and Allen
Environment:Daylight Saving,No,SizingPeriod:DesignDay
Environment:Design Day Data,-0.20,0.00,DefaultMultipliers,Wetbulb,-0.20,{C},92332,140,2.5,0.00,No,No
Environment:Design Day Misc,355,1232.8,0.1424,5.7719E-002,1.0,2.45,-23.5,ASHRAEClearSky
Environment:WarmupDays, 19
 Warmup Convergence Information,ZONE CORE SPACE - STORY GROUND,SizingPeriod: TUCSON INTERNATIONAL AP ANN HTG 99.6% CONDNS DB 1,4.5961382848E-010,1.2431813732E-010,Pass,Pass,0.0000000000,0.0000000000,Pass,Pass
 Warmup Convergence Information,ZONE CORE SPACE - STORY MID,SizingPeriod: TUCSON INTERNATIONAL AP ANN HTG 99.6% CONDNS DB 1,2.9612417968E-003,9.7626869996E-005,Pass,Pass,0.0000000000,0.0000000000,Pass,Pass
 Warmup Convergence Information,ZONE CORE SPACE - STORY TOP,SizingPeriod: TUCSON INTERNATIONAL AP ANN HTG 99.6% CONDNS DB 1,1.0550625188E-011,3.5577455218E-012,Pass,Pass,0.0000000000,0.0000000000,Pass,Pass
 Warmup Convergence Information,ZONE EAST PERIMETER SPACE - STORY GROUND,SizingPeriod: TUCSON INTERNATIONAL AP ANN HTG 99.6% CONDNS DB 1,2.8807795038E-010,7.7974558014E-011,Pass,Pass,0.0000000000,0.0000000000,Pass,Pass
 Warmup Convergence Information,ZONE EAST PERIMETER SPACE - STORY MID,SizingPeriod: TUCSON INTERNATIONAL AP ANN HTG 99.6% CONDNS DB 1,1.2709978407E-003,4.4672401168E-005,Pass,Pass,0.0000000000,0.0000000000,Pass,Pass
 Warmup Convergence Information,ZONE EAST PERIMETER SPACE - STORY TOP,SizingPeriod: TUCSON INTERNATIONAL AP ANN HTG 99.6% CONDNS DB 1,5.2032128606E-012,1.7567414764E-012,Pass,Pass,0.0000000000,0.0000000000,Pass,Pass
 Warmup Convergence Information,ZONE NORTH PERIMETER SPACE - STORY GROUND,SizingPeriod: TUCSON INTERNATIONAL AP ANN HTG 99.6% CONDNS DB 1,2.8733467457E-010,7.7760908386E-011,Pass,Pass,0.0000000000,0.0000000000,Pass,Pass
 Warmup Convergence Information,ZONE NORTH PERIMETER SPACE - STORY MID,SizingPeriod: TUCSON INTERNATIONAL AP ANN HTG 99.6% CONDNS DB 1,1.3189164849E-003,4.6170333700E-005,Pass,Pass,0.0000000000,0.0000000000,Pass,Pass
 Warmup Convergence Information,ZONE NORTH PERIMETER SPACE - STORY TOP,SizingPeriod: TUCSON INTERNATIONAL AP ANN HTG 99.6% CONDNS DB 1,5.3317165497E-012,1.8037939532E-012,Pass,Pass,0.0000000000,0.0000000000,Pass,Pass
 Warmup Convergence Information,ZONE SOUTH PERIMETER SPACE - STORY GROUND,SizingPeriod: TUCSON INTERNATIONAL AP ANN HTG 99.6% CONDNS DB 1,2.9333011945E-010,7.9389215428E-011,Pass,Pass,0.0000000000,0.0000000000,Pass,Pass
 Warmup Convergence Information,ZONE SOUTH PERIMETER SPACE - STORY MID,SizingPeriod: TUCSON INTERNATIONAL AP ANN HTG 99.6% CONDNS DB 1,1.3113261197E-003,4.5962487029E-005,Pass,Pass,0.0000000000,0.0000000000,Pass,Pass
 Warmup Convergence Information,ZONE SOUTH PERIMETER SPACE - STORY TOP,SizingPeriod: TUCSON INTERNATIONAL AP ANN HTG 99.6% CONDNS DB 1,5.3583295208E-012,1.8126373493E-012,Pass,Pass,0.0000000000,0.0000000000,Pass,Pass
 Warmup Convergence Information,ZONE WEST PERIMETER SPACE - STORY GROUND,SizingPeriod: TUCSON INTERNATIONAL AP ANN HTG 99.6% CONDNS DB 1,2.8221515865E-010,7.6377871380E-011,Pass,Pass,0.0000000000,0.0000000000,Pass,Pass
 Warmup Convergence Information,ZONE WEST PERIMETER SPACE - STORY MID,SizingPeriod: TUCSON INTERNATIONAL AP ANN HTG 99.6% CONDNS DB 1,1.2784010894E-003,4.4865508064E-005,Pass,Pass,0.0000000000,0.0000000000,Pass,Pass
 Warmup Convergence Information,ZONE WEST PERIMETER SPACE - STORY TOP,SizingPeriod: TUCSON INTERNATIONAL AP ANN HTG 99.6% CONDNS DB 1,5.1855880701E-012,1.7537261714E-012,Pass,Pass,0.0000000000,0.0000000000,Pass,Pass
Environment,TUCSON INTERNATIONAL AP ANN CLG .4% CONDNS DB=>MWB 1 HVAC Sizing Pass 1,SizingPeriod:DesignDay,07/21,07/21,SummerDesignDay,1,N/A,N/A,N/A,N/A,N/A,N/A,Clark and Allen
Environment:Daylight Saving,No,SizingPeriod:DesignDay
Environment,TUCSON INTERNATIONAL AP ANN CLG .4% CONDNS WB=>MDB 1 HVAC Sizing Pass 1,SizingPeriod:DesignDay,07/21,07/21,SummerDesignDay,1,N/A,N/A,N/A,N/A,N/A,N/A,Clark and Allen
Environment:Daylight Saving,No,SizingPeriod:DesignDay
Environment,TUCSON INTERNATIONAL AP ANN HTG 99.6% CONDNS DB 1 HVAC Sizing Pass 1,SizingPeriod:DesignDay,12/21,12/21,WinterDesignDay,1,N/A,N/A,N/A,N/A,N/A,N/A,Clark and Allen
Environment:Daylight Saving,No,SizingPeriod:DesignDay
! <Program Control Information:Threads/Parallel Sims>, Threading Supported,Maximum Number of Threads, Env Set Threads (OMP_NUM_THREADS), EP Env Set Threads (EP_OMP_NUM_THREADS), IDF Set Threads, Number of Threads Used (Interior Radiant Exchange), Number Nominal Surfaces, Number Parallel Sims
Program Control:Threads/Parallel Sims, No,1, N/A, N/A, N/A, N/A, N/A, N/A
End of Data
